
This summary information was generated by ElastoDyn on 06-Feb-2024 at 10:15:48.


Turbine features:

            Upwind, 3-bladed rotor with rigid hub.
            The model has 11 of 24 DOFs active (enabled) at start-up.
 Enabled    Platform horizontal surge translation DOF 
 Enabled    Platform horizontal sway translation DOF 
 Enabled    Platform vertical heave translation DOF 
 Enabled    Platform roll tilt rotation DOF 
 Enabled    Platform pitch tilt rotation DOF 
 Enabled    Platform yaw rotation DOF 
 Enabled    1st tower fore-aft bending mode DOF 
 Enabled    1st tower side-to-side bending mode DOF 
 Enabled    2nd tower fore-aft bending mode DOF 
 Enabled    2nd tower side-to-side bending mode DOF 
 Disabled   Nacelle yaw DOF 
 Disabled   Rotor-furl DOF 
 Enabled    Variable speed generator DOF 
 Disabled   Drivetrain rotational-flexibility DOF 
 Disabled   Tail-furl DOF 
 Disabled   1st flapwise bending-mode DOF of blade 1 
 Disabled   1st edgewise bending-mode DOF of blade 1 
 Disabled   2nd flapwise bending-mode DOF of blade 1 
 Disabled   1st flapwise bending-mode DOF of blade 2 
 Disabled   1st edgewise bending-mode DOF of blade 2 
 Disabled   2nd flapwise bending-mode DOF of blade 2 
 Disabled   1st flapwise bending-mode DOF of blade 3 
 Disabled   1st edgewise bending-mode DOF of blade 3 
 Disabled   2nd flapwise bending-mode DOF of blade 3 


Time steps:

    Structural            (s)        0.02500000


Some calculated parameters:

    Hub-Height            (m)           149.740
    Flexible Tower Length (m)           123.550
    Flexible Blade Length (m)           115.900


Rotor mass properties:

    Rotor Mass            (kg)       684995.125
    Rotor Inertia         (kg-m^2)669639424.000
                                        Blade 1      Blade 2      Blade 3
                                        -------      -------      -------
    Mass                  (kg)        81146.977    80488.375    80786.758
    Second Mass Moment    (kg-m^2)183712704.000184564480.000185248752.000
    First Mass Moment     (kg-m)    3050222.500  3042045.500  3053323.000
    Center of Mass        (m)            37.589       37.795       37.795


Additional mass properties:

    Tower-top Mass        (kg)      1196854.125
    Tower Mass            (kg)       641404.938
    Platform Mass         (kg)     18898012.000
    Mass Incl. Platform   (kg)     20736272.000


Interpolated tower properties:

Node  TwFract   HNodes  DHNodes  TMassDen    FAStiff    SSStiff
 (-)      (-)      (m)      (m)    (kg/m)     (Nm^2)     (Nm^2)
   1    0.045    5.616   11.232  5191.460  2.500E+12  2.500E+12
   2    0.136   16.848   11.232  5191.460  2.500E+12  2.500E+12
   3    0.227   28.080   11.232  5191.460  2.500E+12  2.500E+12
   4    0.318   39.311   11.232  5191.460  2.500E+12  2.500E+12
   5    0.409   50.543   11.232  5191.460  2.500E+12  2.500E+12
   6    0.500   61.775   11.232  5191.460  2.500E+12  2.500E+12
   7    0.591   73.007   11.232  5191.460  2.500E+12  2.500E+12
   8    0.682   84.239   11.232  5191.460  2.500E+12  2.500E+12
   9    0.773   95.470   11.232  5191.460  2.500E+12  2.500E+12
  10    0.864  106.702   11.232  5191.460  2.500E+12  2.500E+12
  11    0.955  117.934   11.232  5191.460  2.500E+12  2.500E+12


Interpolated blade 1 properties:

Node  BlFract   RNodes  DRNodes PitchAxis  StrcTwst  BMassDen    FlpStff    EdgStff
 (-)      (-)      (m)      (m)       (-)     (deg)    (kg/m)     (Nm^2)     (Nm^2)
   1    0.005    6.120    1.159     0.500    27.130  7447.697  6.256E+13  6.256E+13
   2    0.015    7.279    1.159     0.495    26.829   537.200  9.501E+12  3.478E+13
   3    0.025    8.438    1.159     0.479    25.955   615.216  7.331E+12  1.059E+14
   4    0.035    9.597    1.159     0.463    25.081   693.233  5.161E+12  1.770E+14
   5    0.045   10.755    1.159     0.447    24.208   771.249  2.991E+12  2.481E+14
   6    0.055   11.914    1.159     0.431    23.335   838.282  1.671E+12  2.795E+14
   7    0.065   13.073    1.159     0.415    22.464   890.085  1.530E+12  2.559E+14
   8    0.075   14.233    1.159     0.399    21.593   941.889  1.389E+12  2.323E+14
   9    0.085   15.392    1.159     0.383    20.722   993.692  1.248E+12  2.087E+14
  10    0.095   16.551    1.159     0.367    19.849  1038.054  1.133E+12  1.895E+14
  11    0.105   17.710    1.159     0.351    18.976  1074.763  1.045E+12  1.749E+14
  12    0.115   18.869    1.159     0.335    18.102  1111.472  9.579E+11  1.603E+14
  13    0.125   20.028    1.159     0.319    17.228  1148.181  8.704E+11  1.456E+14
  14    0.135   21.187    1.159     0.303    16.355  1184.448  8.002E+11  1.339E+14
  15    0.145   22.346    1.159     0.288    15.481  1220.378  7.433E+11  1.244E+14
  16    0.155   23.505    1.159     0.272    14.607  1256.307  6.864E+11  1.148E+14
  17    0.165   24.664    1.159     0.256    13.734  1292.237  6.295E+11  1.053E+14
  18    0.175   25.823    1.159     0.250    12.956  1282.313  5.802E+11  9.707E+13
  19    0.185   26.982    1.159     0.250    12.233  1246.709  5.351E+11  8.953E+13
  20    0.195   28.141    1.159     0.250    11.510  1211.106  4.901E+11  8.199E+13
  21    0.205   29.300    1.159     0.250    10.832  1177.687  4.490E+11  7.512E+13
  22    0.215   30.459    1.159     0.250    10.265  1149.490  4.176E+11  6.986E+13
  23    0.225   31.618    1.159     0.250     9.697  1121.294  3.861E+11  6.460E+13
  24    0.235   32.777    1.159     0.250     9.129  1093.097  3.547E+11  5.934E+13
  25    0.245   33.936    1.159     0.250     8.669  1069.963  3.317E+11  5.549E+13
  26    0.255   35.095    1.159     0.250     8.215  1047.101  3.091E+11  5.171E+13
  27    0.265   36.254    1.159     0.250     7.760  1024.238  2.865E+11  4.793E+13
  28    0.275   37.413    1.159     0.250     7.355  1003.803  2.675E+11  4.475E+13
  29    0.285   38.572    1.159     0.250     6.981   984.964  2.509E+11  4.197E+13
  30    0.295   39.731    1.159     0.250     6.608   966.126  2.343E+11  3.920E+13
  31    0.305   40.890    1.159     0.250     6.250   948.079  2.188E+11  3.659E+13
  32    0.315   42.049    1.159     0.250     5.939   932.319  2.063E+11  3.451E+13
  33    0.325   43.208    1.159     0.250     5.628   916.559  1.938E+11  3.242E+13
  34    0.335   44.367    1.159     0.250     5.318   900.800  1.813E+11  3.034E+13
  35    0.345   45.526    1.159     0.250     5.050   887.178  1.715E+11  2.869E+13
  36    0.355   46.685    1.159     0.250     4.787   873.766  1.620E+11  2.709E+13
  37    0.365   47.844    1.159     0.250     4.524   860.353  1.524E+11  2.550E+13
  38    0.375   49.003    1.159     0.250     4.282   848.026  1.441E+11  2.410E+13
  39    0.385   50.162    1.159     0.250     4.055   836.534  1.367E+11  2.285E+13
  40    0.395   51.321    1.159     0.250     3.827   825.042  1.292E+11  2.161E+13
  41    0.405   52.480    1.159     0.250     3.607   813.884  1.221E+11  2.043E+13
  42    0.415   53.639    1.159     0.250     3.413   803.916  1.163E+11  1.945E+13
  43    0.425   54.798    1.159     0.250     3.219   793.948  1.104E+11  1.846E+13
  44    0.435   55.957    1.159     0.250     3.025   783.980  1.045E+11  1.748E+13
  45    0.445   57.116    1.159     0.250     2.851   775.077  9.971E+10  1.668E+13
  46    0.455   58.275    1.159     0.250     2.681   766.328  9.502E+10  1.589E+13
  47    0.465   59.434    1.159     0.250     2.511   757.580  9.033E+10  1.511E+13
  48    0.475   60.593    1.159     0.250     2.351   743.647  8.611E+10  1.441E+13
  49    0.485   61.752    1.159     0.250     2.202   725.061  8.233E+10  1.377E+13
  50    0.495   62.911    1.159     0.250     2.052   706.476  7.854E+10  1.314E+13
  51    0.505   64.070    1.159     0.250     1.906   679.277  7.488E+10  1.253E+13
  52    0.515   65.229    1.159     0.250     1.771   613.108  7.177E+10  1.201E+13
  53    0.525   66.388    1.159     0.250     1.637   546.939  6.867E+10  1.149E+13
  54    0.535   67.547    1.159     0.250     1.502   480.770  6.556E+10  1.097E+13
  55    0.545   68.706    1.159     0.250     1.380   464.991  6.292E+10  1.052E+13
  56    0.555   69.865    1.159     0.250     1.261   459.169  6.037E+10  1.010E+13
  57    0.565   71.024    1.159     0.250     1.141   453.347  5.781E+10  9.671E+12
  58    0.575   72.183    1.159     0.250     1.027   447.809  5.547E+10  9.279E+12
  59    0.585   73.342    1.159     0.250     0.920   442.569  5.334E+10  8.923E+12
  60    0.595   74.501    1.159     0.250     0.812   437.329  5.121E+10  8.566E+12
  61    0.605   75.660    1.159     0.250     0.706   432.160  4.912E+10  8.218E+12
  62    0.615   76.818    1.159     0.250     0.611   427.410  4.734E+10  7.919E+12
  63    0.625   77.977    1.159     0.250     0.515   422.661  4.555E+10  7.620E+12
  64    0.635   79.136    1.159     0.250     0.419   417.912  4.376E+10  7.321E+12
  65    0.645   80.295    1.159     0.250     0.329   413.532  4.220E+10  7.059E+12
  66    0.655   81.454    1.159     0.250     0.239   409.246  4.069E+10  6.807E+12
  67    0.665   82.613    1.159     0.250     0.149   404.960  3.918E+10  6.554E+12
  68    0.675   83.772    1.159     0.250     0.064   386.962  3.777E+10  6.319E+12
  69    0.685   84.931    1.159     0.250    -0.017   352.269  3.649E+10  6.104E+12
  70    0.695   86.090    1.159     0.250    -0.098   317.577  3.521E+10  5.889E+12
  71    0.705   87.249    1.159     0.250    -0.178   286.146  3.394E+10  5.678E+12
  72    0.715   88.408    1.159     0.250    -0.249   282.525  3.284E+10  5.494E+12
  73    0.725   89.567    1.159     0.250    -0.321   278.903  3.174E+10  5.309E+12
  74    0.735   90.726    1.159     0.250    -0.393   275.282  3.065E+10  5.125E+12
  75    0.745   91.885    1.159     0.250    -0.462   271.903  2.966E+10  4.961E+12
  76    0.755   93.044    1.159     0.250    -0.531   268.602  2.871E+10  4.802E+12
  77    0.765   94.203    1.159     0.250    -0.600   265.301  2.776E+10  4.643E+12
  78    0.775   95.362    1.159     0.250    -0.666   262.096  2.686E+10  4.494E+12
  79    0.785   96.521    1.159     0.250    -0.729   259.027  2.605E+10  4.357E+12
  80    0.795   97.680    1.159     0.250    -0.791   255.958  2.523E+10  4.221E+12
  81    0.805   98.839    1.159     0.250    -0.854   252.905  2.442E+10  4.085E+12
  82    0.815   99.998    1.159     0.250    -0.911   250.066  2.371E+10  3.965E+12
  83    0.825  101.157    1.159     0.250    -0.967   247.227  2.299E+10  3.845E+12
  84    0.835  102.316    1.159     0.250    -1.024   244.388  2.227E+10  3.725E+12
  85    0.845  103.475    1.159     0.250    -1.079   241.717  2.162E+10  3.616E+12
  86    0.855  104.634    1.159     0.250    -1.133   239.111  2.100E+10  3.513E+12
  87    0.865  105.793    1.159     0.250    -1.186   236.505  2.038E+10  3.409E+12
  88    0.875  106.952    1.159     0.250    -1.239   233.953  1.775E+10  2.970E+12
  89    0.885  108.111    1.159     0.250    -1.290   231.493  1.179E+10  1.972E+12
  90    0.895  109.270    1.159     0.250    -1.341   229.033  5.821E+09  9.738E+11
  91    0.905  110.429    1.159     0.250    -1.391   226.578  2.753E+07  4.605E+09
  92    0.915  111.588    1.159     0.250    -1.436   224.290  2.753E+07  4.605E+09
  93    0.925  112.747    1.159     0.250    -1.481   222.001  2.753E+07  4.605E+09
  94    0.935  113.906    1.159     0.250    -1.526   219.713  2.753E+07  4.605E+09
  95    0.945  115.065    1.159     0.250    -1.571   217.544  2.753E+07  4.605E+09
  96    0.955  116.224    1.159     0.250    -1.615   215.431  2.753E+07  4.605E+09
  97    0.965  117.383    1.159     0.250    -1.660   213.317  2.753E+07  4.605E+09
  98    0.975  118.542    1.159     0.250    -1.699   194.030  2.753E+07  4.605E+09
  99    0.985  119.701    1.159     0.250    -1.728   140.936  2.753E+07  4.605E+09
 100    0.995  120.860    1.159     0.250    -1.756    87.843  2.753E+07  4.605E+09


Interpolated blade 2 properties:

Node  BlFract   RNodes  DRNodes PitchAxis  StrcTwst  BMassDen    FlpStff    EdgStff
 (-)      (-)      (m)      (m)       (-)     (deg)    (kg/m)     (Nm^2)     (Nm^2)
   1    0.005    6.120    1.159     0.500    27.130  7367.524  6.256E+13  6.256E+13
   2    0.015    7.279    1.159     0.495    26.829   531.417  9.501E+12  3.478E+13
   3    0.025    8.438    1.159     0.479    25.955   608.594  7.331E+12  1.059E+14
   4    0.035    9.597    1.159     0.463    25.081   685.770  5.161E+12  1.770E+14
   5    0.045   10.755    1.159     0.447    24.208   762.947  2.991E+12  2.481E+14
   6    0.055   11.914    1.159     0.431    23.335   829.258  1.671E+12  2.795E+14
   7    0.065   13.073    1.159     0.415    22.464   880.504  1.530E+12  2.559E+14
   8    0.075   14.233    1.159     0.399    21.593   931.749  1.389E+12  2.323E+14
   9    0.085   15.392    1.159     0.383    20.722   982.995  1.248E+12  2.087E+14
  10    0.095   16.551    1.159     0.367    19.849  1026.879  1.133E+12  1.895E+14
  11    0.105   17.710    1.159     0.351    18.976  1063.193  1.045E+12  1.749E+14
  12    0.115   18.869    1.159     0.335    18.102  1099.507  9.579E+11  1.603E+14
  13    0.125   20.028    1.159     0.319    17.228  1135.821  8.704E+11  1.456E+14
  14    0.135   21.187    1.159     0.303    16.355  1171.698  8.002E+11  1.339E+14
  15    0.145   22.346    1.159     0.288    15.481  1207.241  7.433E+11  1.244E+14
  16    0.155   23.505    1.159     0.272    14.607  1242.784  6.864E+11  1.148E+14
  17    0.165   24.664    1.159     0.256    13.734  1278.326  6.295E+11  1.053E+14
  18    0.175   25.823    1.159     0.250    12.956  1268.510  5.802E+11  9.707E+13
  19    0.185   26.982    1.159     0.250    12.233  1233.289  5.351E+11  8.953E+13
  20    0.195   28.141    1.159     0.250    11.510  1198.068  4.901E+11  8.199E+13
  21    0.205   29.300    1.159     0.250    10.832  1165.009  4.490E+11  7.512E+13
  22    0.215   30.459    1.159     0.250    10.265  1137.116  4.176E+11  6.986E+13
  23    0.225   31.618    1.159     0.250     9.697  1109.223  3.861E+11  6.460E+13
  24    0.235   32.777    1.159     0.250     9.129  1081.330  3.547E+11  5.934E+13
  25    0.245   33.936    1.159     0.250     8.669  1058.445  3.317E+11  5.549E+13
  26    0.255   35.095    1.159     0.250     8.215  1035.829  3.091E+11  5.171E+13
  27    0.265   36.254    1.159     0.250     7.760  1013.213  2.865E+11  4.793E+13
  28    0.275   37.413    1.159     0.250     7.355   992.997  2.675E+11  4.475E+13
  29    0.285   38.572    1.159     0.250     6.981   974.361  2.509E+11  4.197E+13
  30    0.295   39.731    1.159     0.250     6.608   955.726  2.343E+11  3.920E+13
  31    0.305   40.890    1.159     0.250     6.250   937.873  2.188E+11  3.659E+13
  32    0.315   42.049    1.159     0.250     5.939   922.283  2.063E+11  3.451E+13
  33    0.325   43.208    1.159     0.250     5.628   906.693  1.938E+11  3.242E+13
  34    0.335   44.367    1.159     0.250     5.318   891.103  1.813E+11  3.034E+13
  35    0.345   45.526    1.159     0.250     5.050   877.628  1.715E+11  2.869E+13
  36    0.355   46.685    1.159     0.250     4.787   864.360  1.620E+11  2.709E+13
  37    0.365   47.844    1.159     0.250     4.524   851.092  1.524E+11  2.550E+13
  38    0.375   49.003    1.159     0.250     4.282   838.897  1.441E+11  2.410E+13
  39    0.385   50.162    1.159     0.250     4.055   827.529  1.367E+11  2.285E+13
  40    0.395   51.321    1.159     0.250     3.827   816.161  1.292E+11  2.161E+13
  41    0.405   52.480    1.159     0.250     3.607   805.122  1.221E+11  2.043E+13
  42    0.415   53.639    1.159     0.250     3.413   795.262  1.163E+11  1.945E+13
  43    0.425   54.798    1.159     0.250     3.219   785.401  1.104E+11  1.846E+13
  44    0.435   55.957    1.159     0.250     3.025   775.541  1.045E+11  1.748E+13
  45    0.445   57.116    1.159     0.250     2.851   766.733  9.971E+10  1.668E+13
  46    0.455   58.275    1.159     0.250     2.681   758.079  9.502E+10  1.589E+13
  47    0.465   59.434    1.159     0.250     2.511   749.424  9.033E+10  1.511E+13
  48    0.475   60.593    1.159     0.250     2.351   735.642  8.611E+10  1.441E+13
  49    0.485   61.752    1.159     0.250     2.202   717.256  8.233E+10  1.377E+13
  50    0.495   62.911    1.159     0.250     2.052   698.871  7.854E+10  1.314E+13
  51    0.505   64.070    1.159     0.250     1.906   671.965  7.488E+10  1.253E+13
  52    0.515   65.229    1.159     0.250     1.771   606.508  7.177E+10  1.201E+13
  53    0.525   66.388    1.159     0.250     1.637   541.052  6.867E+10  1.149E+13
  54    0.535   67.547    1.159     0.250     1.502   475.595  6.556E+10  1.097E+13
  55    0.545   68.706    1.159     0.250     1.380   459.986  6.292E+10  1.052E+13
  56    0.555   69.865    1.159     0.250     1.261   454.226  6.037E+10  1.010E+13
  57    0.565   71.024    1.159     0.250     1.141   448.467  5.781E+10  9.671E+12
  58    0.575   72.183    1.159     0.250     1.027   442.989  5.547E+10  9.279E+12
  59    0.585   73.342    1.159     0.250     0.920   437.805  5.334E+10  8.923E+12
  60    0.595   74.501    1.159     0.250     0.812   432.622  5.121E+10  8.566E+12
  61    0.605   75.660    1.159     0.250     0.706   427.508  4.912E+10  8.218E+12
  62    0.615   76.818    1.159     0.250     0.611   422.809  4.734E+10  7.919E+12
  63    0.625   77.977    1.159     0.250     0.515   418.111  4.555E+10  7.620E+12
  64    0.635   79.136    1.159     0.250     0.419   413.413  4.376E+10  7.321E+12
  65    0.645   80.295    1.159     0.250     0.329   409.080  4.220E+10  7.059E+12
  66    0.655   81.454    1.159     0.250     0.239   404.841  4.069E+10  6.807E+12
  67    0.665   82.613    1.159     0.250     0.149   400.601  3.918E+10  6.554E+12
  68    0.675   83.772    1.159     0.250     0.064   382.796  3.777E+10  6.319E+12
  69    0.685   84.931    1.159     0.250    -0.017   348.477  3.649E+10  6.104E+12
  70    0.695   86.090    1.159     0.250    -0.098   314.158  3.521E+10  5.889E+12
  71    0.705   87.249    1.159     0.250    -0.178   283.066  3.394E+10  5.678E+12
  72    0.715   88.408    1.159     0.250    -0.249   279.483  3.284E+10  5.494E+12
  73    0.725   89.567    1.159     0.250    -0.321   275.901  3.174E+10  5.309E+12
  74    0.735   90.726    1.159     0.250    -0.393   272.319  3.065E+10  5.125E+12
  75    0.745   91.885    1.159     0.250    -0.462   268.977  2.966E+10  4.961E+12
  76    0.755   93.044    1.159     0.250    -0.531   265.711  2.871E+10  4.802E+12
  77    0.765   94.203    1.159     0.250    -0.600   262.445  2.776E+10  4.643E+12
  78    0.775   95.362    1.159     0.250    -0.666   259.274  2.686E+10  4.494E+12
  79    0.785   96.521    1.159     0.250    -0.729   256.239  2.605E+10  4.357E+12
  80    0.795   97.680    1.159     0.250    -0.791   253.203  2.523E+10  4.221E+12
  81    0.805   98.839    1.159     0.250    -0.854   250.182  2.442E+10  4.085E+12
  82    0.815   99.998    1.159     0.250    -0.911   247.374  2.371E+10  3.965E+12
  83    0.825  101.157    1.159     0.250    -0.967   244.566  2.299E+10  3.845E+12
  84    0.835  102.316    1.159     0.250    -1.024   241.758  2.227E+10  3.725E+12
  85    0.845  103.475    1.159     0.250    -1.079   239.115  2.162E+10  3.616E+12
  86    0.855  104.634    1.159     0.250    -1.133   236.537  2.100E+10  3.513E+12
  87    0.865  105.793    1.159     0.250    -1.186   233.959  2.038E+10  3.409E+12
  88    0.875  106.952    1.159     0.250    -1.239   231.435  1.775E+10  2.970E+12
  89    0.885  108.111    1.159     0.250    -1.290   229.001  1.179E+10  1.972E+12
  90    0.895  109.270    1.159     0.250    -1.341   226.568  5.821E+09  9.738E+11
  91    0.905  110.429    1.159     0.250    -1.391   224.139  2.753E+07  4.605E+09
  92    0.915  111.588    1.159     0.250    -1.436   221.875  2.753E+07  4.605E+09
  93    0.925  112.747    1.159     0.250    -1.481   219.611  2.753E+07  4.605E+09
  94    0.935  113.906    1.159     0.250    -1.526   217.347  2.753E+07  4.605E+09
  95    0.945  115.065    1.159     0.250    -1.571   215.202  2.753E+07  4.605E+09
  96    0.955  116.224    1.159     0.250    -1.615   213.112  2.753E+07  4.605E+09
  97    0.965  117.383    1.159     0.250    -1.660   211.021  2.753E+07  4.605E+09
  98    0.975  118.542    1.159     0.250    -1.699   207.517  2.753E+07  4.605E+09
  99    0.985  119.701    1.159     0.250    -1.728   201.229  2.753E+07  4.605E+09
 100    0.995  120.860    1.159     0.250    -1.756   194.941  2.753E+07  4.605E+09


Interpolated blade 3 properties:

Node  BlFract   RNodes  DRNodes PitchAxis  StrcTwst  BMassDen    FlpStff    EdgStff
 (-)      (-)      (m)      (m)       (-)     (deg)    (kg/m)     (Nm^2)     (Nm^2)
   1    0.005    6.120    1.159     0.500    27.130  7394.838  6.256E+13  6.256E+13
   2    0.015    7.279    1.159     0.495    26.829   533.387  9.501E+12  3.478E+13
   3    0.025    8.438    1.159     0.479    25.955   610.850  7.331E+12  1.059E+14
   4    0.035    9.597    1.159     0.463    25.081   688.312  5.161E+12  1.770E+14
   5    0.045   10.755    1.159     0.447    24.208   765.775  2.991E+12  2.481E+14
   6    0.055   11.914    1.159     0.431    23.335   832.333  1.671E+12  2.795E+14
   7    0.065   13.073    1.159     0.415    22.464   883.768  1.530E+12  2.559E+14
   8    0.075   14.233    1.159     0.399    21.593   935.204  1.389E+12  2.323E+14
   9    0.085   15.392    1.159     0.383    20.722   986.639  1.248E+12  2.087E+14
  10    0.095   16.551    1.159     0.367    19.849  1030.686  1.133E+12  1.895E+14
  11    0.105   17.710    1.159     0.351    18.976  1067.135  1.045E+12  1.749E+14
  12    0.115   18.869    1.159     0.335    18.102  1103.583  9.579E+11  1.603E+14
  13    0.125   20.028    1.159     0.319    17.228  1140.032  8.704E+11  1.456E+14
  14    0.135   21.187    1.159     0.303    16.355  1176.042  8.002E+11  1.339E+14
  15    0.145   22.346    1.159     0.288    15.481  1211.716  7.433E+11  1.244E+14
  16    0.155   23.505    1.159     0.272    14.607  1247.391  6.864E+11  1.148E+14
  17    0.165   24.664    1.159     0.256    13.734  1283.066  6.295E+11  1.053E+14
  18    0.175   25.823    1.159     0.250    12.956  1273.213  5.802E+11  9.707E+13
  19    0.185   26.982    1.159     0.250    12.233  1237.861  5.351E+11  8.953E+13
  20    0.195   28.141    1.159     0.250    11.510  1202.510  4.901E+11  8.199E+13
  21    0.205   29.300    1.159     0.250    10.832  1169.328  4.490E+11  7.512E+13
  22    0.215   30.459    1.159     0.250    10.265  1141.332  4.176E+11  6.986E+13
  23    0.225   31.618    1.159     0.250     9.697  1113.335  3.861E+11  6.460E+13
  24    0.235   32.777    1.159     0.250     9.129  1085.339  3.547E+11  5.934E+13
  25    0.245   33.936    1.159     0.250     8.669  1062.369  3.317E+11  5.549E+13
  26    0.255   35.095    1.159     0.250     8.215  1039.669  3.091E+11  5.171E+13
  27    0.265   36.254    1.159     0.250     7.760  1016.969  2.865E+11  4.793E+13
  28    0.275   37.413    1.159     0.250     7.355   996.678  2.675E+11  4.475E+13
  29    0.285   38.572    1.159     0.250     6.981   977.974  2.509E+11  4.197E+13
  30    0.295   39.731    1.159     0.250     6.608   959.269  2.343E+11  3.920E+13
  31    0.305   40.890    1.159     0.250     6.250   941.350  2.188E+11  3.659E+13
  32    0.315   42.049    1.159     0.250     5.939   925.702  2.063E+11  3.451E+13
  33    0.325   43.208    1.159     0.250     5.628   910.054  1.938E+11  3.242E+13
  34    0.335   44.367    1.159     0.250     5.318   894.406  1.813E+11  3.034E+13
  35    0.345   45.526    1.159     0.250     5.050   880.882  1.715E+11  2.869E+13
  36    0.355   46.685    1.159     0.250     4.787   867.564  1.620E+11  2.709E+13
  37    0.365   47.844    1.159     0.250     4.524   854.247  1.524E+11  2.550E+13
  38    0.375   49.003    1.159     0.250     4.282   842.007  1.441E+11  2.410E+13
  39    0.385   50.162    1.159     0.250     4.055   830.597  1.367E+11  2.285E+13
  40    0.395   51.321    1.159     0.250     3.827   819.186  1.292E+11  2.161E+13
  41    0.405   52.480    1.159     0.250     3.607   808.107  1.221E+11  2.043E+13
  42    0.415   53.639    1.159     0.250     3.413   798.210  1.163E+11  1.945E+13
  43    0.425   54.798    1.159     0.250     3.219   788.313  1.104E+11  1.846E+13
  44    0.435   55.957    1.159     0.250     3.025   778.416  1.045E+11  1.748E+13
  45    0.445   57.116    1.159     0.250     2.851   769.576  9.971E+10  1.668E+13
  46    0.455   58.275    1.159     0.250     2.681   760.889  9.502E+10  1.589E+13
  47    0.465   59.434    1.159     0.250     2.511   752.203  9.033E+10  1.511E+13
  48    0.475   60.593    1.159     0.250     2.351   738.369  8.611E+10  1.441E+13
  49    0.485   61.752    1.159     0.250     2.202   719.915  8.233E+10  1.377E+13
  50    0.495   62.911    1.159     0.250     2.052   701.462  7.854E+10  1.314E+13
  51    0.505   64.070    1.159     0.250     1.906   674.456  7.488E+10  1.253E+13
  52    0.515   65.229    1.159     0.250     1.771   608.757  7.177E+10  1.201E+13
  53    0.525   66.388    1.159     0.250     1.637   543.057  6.867E+10  1.149E+13
  54    0.535   67.547    1.159     0.250     1.502   477.358  6.556E+10  1.097E+13
  55    0.545   68.706    1.159     0.250     1.380   461.691  6.292E+10  1.052E+13
  56    0.555   69.865    1.159     0.250     1.261   455.910  6.037E+10  1.010E+13
  57    0.565   71.024    1.159     0.250     1.141   450.129  5.781E+10  9.671E+12
  58    0.575   72.183    1.159     0.250     1.027   444.631  5.547E+10  9.279E+12
  59    0.585   73.342    1.159     0.250     0.920   439.428  5.334E+10  8.923E+12
  60    0.595   74.501    1.159     0.250     0.812   434.226  5.121E+10  8.566E+12
  61    0.605   75.660    1.159     0.250     0.706   429.092  4.912E+10  8.218E+12
  62    0.615   76.818    1.159     0.250     0.611   424.377  4.734E+10  7.919E+12
  63    0.625   77.977    1.159     0.250     0.515   419.661  4.555E+10  7.620E+12
  64    0.635   79.136    1.159     0.250     0.419   414.946  4.376E+10  7.321E+12
  65    0.645   80.295    1.159     0.250     0.329   410.597  4.220E+10  7.059E+12
  66    0.655   81.454    1.159     0.250     0.239   406.342  4.069E+10  6.807E+12
  67    0.665   82.613    1.159     0.250     0.149   402.086  3.918E+10  6.554E+12
  68    0.675   83.772    1.159     0.250     0.064   384.215  3.777E+10  6.319E+12
  69    0.685   84.931    1.159     0.250    -0.017   349.769  3.649E+10  6.104E+12
  70    0.695   86.090    1.159     0.250    -0.098   315.323  3.521E+10  5.889E+12
  71    0.705   87.249    1.159     0.250    -0.178   284.115  3.394E+10  5.678E+12
  72    0.715   88.408    1.159     0.250    -0.249   280.519  3.284E+10  5.494E+12
  73    0.725   89.567    1.159     0.250    -0.321   276.924  3.174E+10  5.309E+12
  74    0.735   90.726    1.159     0.250    -0.393   273.328  3.065E+10  5.125E+12
  75    0.745   91.885    1.159     0.250    -0.462   269.974  2.966E+10  4.961E+12
  76    0.755   93.044    1.159     0.250    -0.531   266.696  2.871E+10  4.802E+12
  77    0.765   94.203    1.159     0.250    -0.600   263.418  2.776E+10  4.643E+12
  78    0.775   95.362    1.159     0.250    -0.666   260.235  2.686E+10  4.494E+12
  79    0.785   96.521    1.159     0.250    -0.729   257.189  2.605E+10  4.357E+12
  80    0.795   97.680    1.159     0.250    -0.791   254.142  2.523E+10  4.221E+12
  81    0.805   98.839    1.159     0.250    -0.854   251.110  2.442E+10  4.085E+12
  82    0.815   99.998    1.159     0.250    -0.911   248.291  2.371E+10  3.965E+12
  83    0.825  101.157    1.159     0.250    -0.967   245.472  2.299E+10  3.845E+12
  84    0.835  102.316    1.159     0.250    -1.024   242.654  2.227E+10  3.725E+12
  85    0.845  103.475    1.159     0.250    -1.079   240.002  2.162E+10  3.616E+12
  86    0.855  104.634    1.159     0.250    -1.133   237.414  2.100E+10  3.513E+12
  87    0.865  105.793    1.159     0.250    -1.186   234.826  2.038E+10  3.409E+12
  88    0.875  106.952    1.159     0.250    -1.239   232.293  1.775E+10  2.970E+12
  89    0.885  108.111    1.159     0.250    -1.290   229.850  1.179E+10  1.972E+12
  90    0.895  109.270    1.159     0.250    -1.341   227.408  5.821E+09  9.738E+11
  91    0.905  110.429    1.159     0.250    -1.391   224.970  2.753E+07  4.605E+09
  92    0.915  111.588    1.159     0.250    -1.436   222.698  2.753E+07  4.605E+09
  93    0.925  112.747    1.159     0.250    -1.481   220.426  2.753E+07  4.605E+09
  94    0.935  113.906    1.159     0.250    -1.526   218.153  2.753E+07  4.605E+09
  95    0.945  115.065    1.159     0.250    -1.571   216.000  2.753E+07  4.605E+09
  96    0.955  116.224    1.159     0.250    -1.615   213.902  2.753E+07  4.605E+09
  97    0.965  117.383    1.159     0.250    -1.660   211.803  2.753E+07  4.605E+09
  98    0.975  118.542    1.159     0.250    -1.699   208.286  2.753E+07  4.605E+09
  99    0.985  119.701    1.159     0.250    -1.728   201.975  2.753E+07  4.605E+09
 100    0.995  120.860    1.159     0.250    -1.756   195.664  2.753E+07  4.605E+09


Requested Outputs:


 Col   Parameter            Units               
 ---   ---------------      ---------------     
   0   Time                 (s)                 
   1   GenSpeed             (rpm)               
   2   RotSpeed             (rpm)               
   3   RotTorq              (kN-m)              
   4   RotThrust            (kN)                
   5   TwrBsMxt             (kN-m)              
   6   TwrBsMyt             (kN-m)              
   7   TwrBsMzt             (kN-m)              
   8   TwrBsFxt             (kN)                
   9   TwrBsFyt             (kN)                
  10   TwrBsFzt             (kN)                
  11   PtfmSurge            (m)                 
  12   PtfmSway             (m)                 
  13   PtfmHeave            (m)                 
  14   PtfmRoll             (deg)               
  15   PtfmPitch            (deg)               
  16   PtfmYaw              (deg)               
  17   TTDspFA              (m)                 
  18   TTDspSS              (m)                 
  19   YawBrFyn             (kN)                


  Requested Output Channels at each blade station:
 Col   Parameter            Units               
 ---   ---------------      ---------------     
