
This summary file was generated by HydroDyn  on 15-Feb-2024 at 13:30:29.

WAMIT Model - Body    1
------------------
  Displaced volume (m^3)                 :     2.020635E+04
  X-offset of the center of buoyancy (m) :     0.000000E+00
  Y-offset of the center of buoyancy (m) :     0.000000E+00


  Buoyancy loads from members modelled with WAMIT, summed about ( 0.0, 0.0, 0.0 )
                                BuoyFxi               BuoyFyi               BuoyFzi               BuoyMxi               BuoyMyi               BuoyMzi 
                                  (N)                   (N)                   (N)                  (N-m)                 (N-m)                 (N-m)  
  External:                 0.000000E+00          0.000000E+00          2.031105E+08          0.000000E+00         -0.000000E+00          0.000000E+00



Strip-Theory Volume Calculations(m^3)
-------------------------------------
  Structure Volume     :    0.00000E+00
  Submerged Volume     :    0.00000E+00
  Marine Growth Volume :    0.00000E+00
  Ballasted Volume     :    0.00000E+00
              NOTE: Structure, Submerged and Marine Growth volumes are based on members not modelled with WAMIT
                      Ballasted volume is computed from all members which are marked as filled in the HydroDyn input file, regardless of PropPot flag



Total Buoyancy loads summed about ( 0.0, 0.0, 0.0 )
---------------------------------------------------
                                BuoyFxi               BuoyFyi               BuoyFzi               BuoyMxi               BuoyMyi               BuoyMzi 
                                  (N)                   (N)                   (N)                  (N-m)                 (N-m)                 (N-m)  
 External:                  0.000000E+00          0.000000E+00          0.000000E+00          0.000000E+00          0.000000E+00          0.000000E+00
 Internal:                  0.000000E+00          0.000000E+00          0.000000E+00          0.000000E+00          0.000000E+00          0.000000E+00
 Total   :                  0.000000E+00          0.000000E+00          0.000000E+00          0.000000E+00          0.000000E+00          0.000000E+00
              NOTE: External buoyancy is based on members not modelled with WAMIT
                      Internal buoyancy is computed from all members which are marked as filled in the HydroDyn input file, regardless of PropPot flag
                    Total buoyancy does not include WAMIT-modelled buoyancy contribution



Weight loads about ( 0.0, 0.0, 0.0 )
------------------------------------
                                 MGFxi                 MGFyi                 MGFzi                 MGMxi                 MGMyi                 MGMzi  
                                  (N)                   (N)                   (N)                  (N-m)                 (N-m)                 (N-m)  
 Marine Growth:             0.000000E+00          0.000000E+00          0.000000E+00          0.000000E+00          0.000000E+00          0.000000E+00



Nodes (first [   2 ] are joints, remainder are internal nodes)


   i      MbrIndx      Nxi         Nyi         Nzi           R          t          tMG        MGDens     PropPot    FilledFlag  FilledMass      Cd          Ca          Cp         AxCd        AxCa        AxCp        JAxCd       JAxCa       JAxCp  
  (-)       (-)        (m)         (m)         (m)          (m)        (m)         (m)       (kg/m^3)      (-)         (-)        (kg)          (-)         (-)         (-)         (-)         (-)         (-)         (-)         (-)         (-)   
     1      -           0.0000      0.0000    -13.1800      -           -        0.000E+00   0.000E+00      -           -           -           -           -           -           -           -           -        0.000E+00   0.000E+00   0.000E+00
     2      -           0.0000      0.0000    -14.1800      -           -        0.000E+00   0.000E+00      -           -           -           -           -           -           -           -           -        0.000E+00   0.000E+00   0.000E+00



 Members


 MemberID  joint1  joint2      Length       NElem         Volume       MGVolume          R1           t1             R2           t2          PropPot      FilledFlag   FillDensity    FillFSLoc     FillMass         Cd1            Ca1          Cp1          AxCd1         AxCa1         AxCp1        JAxCd1        JAxCa1       JAxCp1           Cd2           Ca2           Cp2          AxCd2         AxCa2         AxCp2        JAxCd2        JAxCa2        JAxCp2   
   (-)      (-)     (-)         (m)          (-)          (m^3)         (m^3)            (m)          (m)            (m)          (m)           (-)           (-)        (kg/m^3)         (-)          (kg)           (-)            (-)          (-)           (-)           (-)           (-)           (-)           (-)          (-)            (-)           (-)           (-)           (-)           (-)           (-)           (-)           (-)           (-)    
        1       2       1   1.00000E+00             1   0.00000E+00   0.00000E+00   5.00000E-06   1.00000E-06   5.00000E-06   1.00000E-06             T             F   0.00000E+00   0.00000E+00   0.00000E+00   1.00000E+00   1.00000E+00   1.00000E+00   1.00000E+00   0.00000E+00   1.00000E+00   0.00000E+00   0.00000E+00   0.00000E+00   1.00000E+00   1.00000E+00   1.00000E+00   1.00000E+00   0.00000E+00   1.00000E+00   0.00000E+00   0.00000E+00   0.00000E+00



Requested Member Outputs


   Label         Xi          Yi          Zi       MemberID    StartXi     StartYi     StartZi      EndXi       EndYi       EndZi        Loc    
    (-)          (m)         (m)         (m)        (-)         (m)         (m)         (m)         (m)         (m)         (m)         (-)    



 Requested Joint Outputs


   Label         Xi          Yi          Zi      InpJointID
    (-)          (m)         (m)         (m)        (-)    



Radiation memory effect kernel



      n           t                   K11               K12               K13               K14               K15               K16               K21               K22               K23               K24               K25               K26               K31               K32               K33               K34               K35               K36               K41               K42               K43               K44               K45               K46               K51               K52               K53               K54               K55               K56               K61               K62               K63               K64               K65               K66
     (-)         (s)            (kg/s^2)          (kg/s^2)          (kg/s^2)         (kgm/s^2)         (kgm/s^2)         (kgm/s^2)          (kg/s^2)          (kg/s^2)          (kg/s^2)         (kgm/s^2)         (kgm/s^2)         (kgm/s^2)          (kg/s^2)          (kg/s^2)          (kg/s^2)         (kgm/s^2)         (kgm/s^2)         (kgm/s^2)         (kgm/s^2)         (kgm/s^2)         (kgm/s^2)        (kgm^2/s^2)       (kgm^2/s^2)       (kgm^2/s^2)        (kgm/s^2)         (kgm/s^2)         (kgm/s^2)        (kgm^2/s^2)       (kgm^2/s^2)       (kgm^2/s^2)        (kgm/s^2)         (kgm/s^2)         (kgm/s^2)        (kgm^2/s^2)       (kgm^2/s^2)       (kgm^2/s^2)
          0   0.00000E+00       4.37394E+06       1.31384E+01      -5.92474E+01      -2.25506E+01      -1.61388E+07      -4.86830E+02      -1.41091E+00       4.37424E+06      -2.32917E+00       1.61408E+07       3.26379E+01       8.80876E+03      -2.88040E-01      -2.04741E-01       1.27923E+06       4.84185E+01       9.08379E+02      -1.82909E+01       7.62199E+00       1.62151E+07       5.14549E+00       5.78794E+08       9.29808E+02       8.06750E+04      -1.62142E+07      -3.64430E+02       1.28353E+03      -4.99211E+03       5.78770E+08       3.28410E+02      -8.84888E+01       6.55859E+03       2.16352E+01       1.36957E+05       3.15558E+03       9.44990E+09
          1   0.12500E-01       4.37276E+06       1.31214E+01      -5.91466E+01      -2.25233E+01      -1.61362E+07      -4.86210E+02      -1.40837E+00       4.37306E+06      -2.32562E+00       1.61382E+07       3.25932E+01       8.79455E+03      -2.67441E-01      -2.04299E-01       1.27913E+06       4.83060E+01       9.08692E+02      -1.82643E+01       7.61943E+00       1.62124E+07       5.11489E+00       5.78749E+08       9.28277E+02       8.05571E+04      -1.62115E+07      -3.63949E+02       1.28345E+03      -4.98570E+03       5.78726E+08       3.28269E+02      -8.83634E+01       6.54742E+03       2.16113E+01       1.36752E+05       3.15108E+03       9.44738E+09
          2   0.25000E-01       4.36921E+06       1.30705E+01      -5.88447E+01      -2.24417E+01      -1.61285E+07      -4.84352E+02      -1.40073E+00       4.36950E+06      -2.31498E+00       1.61305E+07       3.24593E+01       8.75193E+03      -2.05732E-01      -2.02977E-01       1.27884E+06       4.79689E+01       9.09630E+02      -1.81848E+01       7.61174E+00       1.62043E+07       5.02314E+00       5.78616E+08       9.23689E+02       8.02036E+04      -1.62035E+07      -3.62508E+02       1.28321E+03      -4.96648E+03       5.78592E+08       3.27843E+02      -8.79875E+01       6.51397E+03       2.15397E+01       1.36138E+05       3.13759E+03       9.43981E+09
          3   0.37500E-01       4.36329E+06       1.29858E+01      -5.83424E+01      -2.23058E+01      -1.61158E+07      -4.81260E+02      -1.38803E+00       4.36359E+06      -2.29728E+00       1.61178E+07       3.22364E+01       8.68105E+03      -1.03082E-01      -2.00783E-01       1.27837E+06       4.74083E+01       9.11190E+02      -1.80525E+01       7.59893E+00       1.61909E+07       4.87050E+00       5.78394E+08       9.16056E+02       7.96156E+04      -1.61901E+07      -3.60111E+02       1.28279E+03      -4.93450E+03       5.78370E+08       3.27134E+02      -8.73623E+01       6.45833E+03       2.14206E+01       1.35118E+05       3.11516E+03       9.42720E+09
          4   0.50000E-01       4.35502E+06       1.28675E+01      -5.76413E+01      -2.21160E+01      -1.60979E+07      -4.76943E+02      -1.37031E+00       4.35532E+06      -2.27257E+00       1.60999E+07       3.19252E+01       8.58211E+03       4.01538E-02      -1.97733E-01       1.27770E+06       4.66260E+01       9.13366E+02      -1.78677E+01       7.58101E+00       1.61721E+07       4.65735E+00       5.78083E+08       9.05399E+02       7.87949E+04      -1.61713E+07      -3.56763E+02       1.28222E+03      -4.88986E+03       5.78059E+08       3.26140E+02      -8.64896E+01       6.38066E+03       2.12543E+01       1.33692E+05       3.08385E+03       9.40957E+09
          5   0.62500E-01       4.34441E+06       1.27159E+01      -5.67435E+01      -2.18725E+01      -1.60750E+07      -4.71410E+02      -1.34762E+00       4.34470E+06      -2.24093E+00       1.60769E+07       3.15265E+01       8.45540E+03       2.23551E-01      -1.93844E-01       1.27684E+06       4.56247E+01       9.16152E+02      -1.76309E+01       7.55801E+00       1.61480E+07       4.38428E+00       5.77683E+08       8.91748E+02       7.77437E+04      -1.61472E+07      -3.52474E+02       1.28148E+03      -4.83266E+03       5.77659E+08       3.24862E+02      -8.53719E+01       6.28120E+03       2.10413E+01       1.31867E+05       3.04376E+03       9.38694E+09
          6   0.75000E-01       4.33147E+06       1.25315E+01      -5.56517E+01      -2.15760E+01      -1.60470E+07      -4.64677E+02      -1.32004E+00       4.33176E+06      -2.20246E+00       1.60489E+07       3.10415E+01       8.30130E+03       4.46500E-01      -1.89144E-01       1.27580E+06       4.44078E+01       9.19537E+02      -1.73427E+01       7.52996E+00       1.61186E+07       4.05199E+00       5.77195E+08       8.75140E+02       7.64653E+04      -1.61178E+07      -3.47256E+02       1.28058E+03      -4.76307E+03       5.77171E+08       3.23297E+02      -8.40127E+01       6.16024E+03       2.07822E+01       1.29647E+05       2.99503E+03       9.35934E+09
          7   0.87500E-01       4.31621E+06       1.23146E+01      -5.43690E+01      -2.12268E+01      -1.60140E+07      -4.56760E+02      -1.28766E+00       4.31649E+06      -2.15726E+00       1.60158E+07       3.04715E+01       8.12026E+03       7.08322E-01      -1.83663E-01       1.27456E+06       4.29792E+01       9.23509E+02      -1.70038E+01       7.49687E+00       1.60839E+07       3.66136E+00       5.76619E+08       8.55620E+02       7.49633E+04      -1.60832E+07      -3.41123E+02       1.27952E+03      -4.68126E+03       5.76595E+08       3.21447E+02      -8.24158E+01       6.01816E+03       2.04777E+01       1.27039E+05       2.93780E+03       9.32680E+09
          8   0.10000E+00       4.29865E+06       1.20658E+01      -5.28994E+01      -2.08259E+01      -1.59760E+07      -4.47679E+02      -1.25058E+00       4.29893E+06      -2.10548E+00       1.59778E+07       2.98181E+01       7.91282E+03       1.00816E+00      -1.77438E-01       1.27314E+06       4.13437E+01       9.28056E+02      -1.66151E+01       7.45879E+00       1.60439E+07       3.21341E+00       5.75954E+08       8.33242E+02       7.32422E+04      -1.60432E+07      -3.34090E+02       1.27830E+03      -4.58747E+03       5.75930E+08       3.19308E+02      -8.05861E+01       5.85537E+03       2.01288E+01       1.24051E+05       2.87226E+03       9.28936E+09
          9   0.11250E+00       4.27882E+06       1.17858E+01      -5.12473E+01      -2.03739E+01      -1.59330E+07      -4.37456E+02      -1.20891E+00       4.27909E+06      -2.04728E+00       1.59347E+07       2.90830E+01       7.67958E+03       1.34509E+00      -1.70509E-01       1.27153E+06       3.95069E+01       9.33162E+02      -1.61776E+01       7.41576E+00       1.59988E+07       2.70932E+00       5.75202E+08       8.08067E+02       7.13069E+04      -1.59981E+07      -3.26178E+02       1.27691E+03      -4.48194E+03       5.75178E+08       3.16881E+02      -7.85290E+01       5.67235E+03       1.97364E+01       1.20691E+05       2.79861E+03       9.24707E+09
         10   0.12500E+00       4.25674E+06       1.14753E+01      -4.94176E+01      -1.98717E+01      -1.58851E+07      -4.26119E+02      -1.16280E+00       4.25700E+06      -1.98281E+00       1.58867E+07       2.82683E+01       7.42123E+03       1.71801E+00      -1.62923E-01       1.26973E+06       3.74748E+01       9.38809E+02      -1.56923E+01       7.36783E+00       1.59484E+07       2.15042E+00       5.74362E+08       7.80165E+02       6.91631E+04      -1.59478E+07      -3.17407E+02       1.27537E+03      -4.36495E+03       5.74338E+08       3.14163E+02      -7.62505E+01       5.46967E+03       1.93016E+01       1.16969E+05       2.71709E+03       9.19997E+09
         11   0.13750E+00       4.23243E+06       1.11350E+01      -4.74156E+01      -1.93204E+01      -1.58322E+07      -4.13694E+02      -1.11239E+00       4.23269E+06      -1.91229E+00       1.58338E+07       2.73762E+01       7.13855E+03       2.12577E+00      -1.54731E-01       1.26775E+06       3.52542E+01       9.44978E+02      -1.51604E+01       7.31505E+00       1.58929E+07       1.53818E+00       5.73435E+08       7.49611E+02       6.68171E+04      -1.58923E+07      -3.07801E+02       1.27368E+03      -4.23681E+03       5.73411E+08       3.11155E+02      -7.37574E+01       5.24793E+03       1.88257E+01       1.12896E+05       2.62796E+03       9.14811E+09
         12   0.15000E+00       4.20593E+06       1.07658E+01      -4.52475E+01      -1.87211E+01      -1.57745E+07      -4.00215E+02      -1.05785E+00       4.20618E+06      -1.83592E+00       1.57760E+07       2.64092E+01       6.83236E+03       2.56704E+00      -1.45988E-01       1.26559E+06       3.28525E+01       9.51648E+02      -1.45834E+01       7.25749E+00       1.58324E+07       8.74214E-01       5.72421E+08       7.16490E+02       6.42758E+04      -1.58318E+07      -2.97385E+02       1.27182E+03      -4.09788E+03       5.72397E+08       3.07853E+02      -7.10571E+01       5.00778E+03       1.83100E+01       1.08485E+05       2.53149E+03       9.09158E+09
         13   0.16250E+00       4.17727E+06       1.03688E+01      -4.29197E+01      -1.80749E+01      -1.57120E+07      -3.85714E+02      -9.99339E-01       4.17751E+06      -1.75392E+00       1.57134E+07       2.53699E+01       6.50356E+03       3.04046E+00      -1.36755E-01       1.26324E+06       3.02777E+01       9.58794E+02      -1.39627E+01       7.19520E+00       1.57668E+07       1.60271E-01       5.71320E+08       6.80892E+02       6.15466E+04      -1.57663E+07      -2.86189E+02       1.26982E+03      -3.94852E+03       5.71296E+08       3.04258E+02      -6.81575E+01       4.74995E+03       1.77560E+01       1.03747E+05       2.42799E+03       9.03042E+09
         14   0.17500E+00       4.14648E+06       9.94480E+00      -4.04391E+01      -1.73833E+01      -1.56447E+07      -3.70228E+02      -9.37058E-01       4.14672E+06      -1.66656E+00       1.56460E+07       2.42613E+01       6.15312E+03       3.54448E+00      -1.27094E-01       1.26071E+06       2.75385E+01       9.66393E+02      -1.32998E+01       7.12827E+00       1.56962E+07      -6.01774E-01       5.70134E+08       6.42915E+02       5.86375E+04      -1.56957E+07      -2.74241E+02       1.26766E+03      -3.78913E+03       5.70109E+08       3.00368E+02      -6.50673E+01       4.47522E+03       1.71654E+01       9.86971E+04       2.31779E+03       8.96472E+09
         15   0.18750E+00       4.11360E+06       9.49499E+00      -3.78132E+01      -1.66474E+01      -1.55727E+07      -3.53796E+02      -8.71202E-01       4.11383E+06      -1.57408E+00       1.55739E+07       2.30862E+01       5.78209E+03       4.07753E+00      -1.17073E-01       1.25800E+06       2.46439E+01       9.74419E+02      -1.25964E+01       7.05677E+00       1.56207E+07      -1.40990E+00       5.68861E+08       6.02663E+02       5.55569E+04      -1.56203E+07      -2.61575E+02       1.26535E+03      -3.62014E+03       5.68836E+08       2.96182E+02      -6.17955E+01       4.18440E+03       1.65397E+01       9.33499E+04       2.20124E+03       8.89454E+09
         16   0.20000E+00       4.07867E+06       9.02048E+00      -3.50498E+01      -1.58691E+01      -1.54960E+07      -3.36460E+02      -8.01986E-01       4.07889E+06      -1.47678E+00       1.54971E+07       2.18480E+01       5.39155E+03       4.63789E+00      -1.06763E-01       1.25511E+06       2.16036E+01       9.82843E+02      -1.18543E+01       6.98079E+00       1.55404E+07      -2.26199E+00       5.67504E+08       5.60247E+02       5.23140E+04      -1.55401E+07      -2.48224E+02       1.26290E+03      -3.44201E+03       5.67479E+08       2.91699E+02      -5.83519E+01       3.87837E+03       1.58808E+01       8.77214E+04       2.07870E+03       8.81999E+09
         17   0.21250E+00       4.04173E+06       8.52250E+00      -3.21571E+01      -1.50496E+01      -1.54147E+07      -3.18263E+02      -7.29629E-01       4.04195E+06      -1.37492E+00       1.54157E+07       2.05500E+01       4.98266E+03       5.22379E+00      -9.62372E-02       1.25204E+06       1.84278E+01       9.91635E+02      -1.10753E+01       6.90042E+00       1.54553E+07      -3.15579E+00       5.66061E+08       5.15783E+02       4.89181E+04      -1.54550E+07      -2.34224E+02       1.26030E+03      -3.25520E+03       5.66036E+08       2.86919E+02      -5.47467E+01       3.55804E+03       1.51905E+01       8.18278E+04       1.95057E+03       8.74113E+09
         18   0.22500E+00       4.00283E+06       8.00232E+00      -2.91439E+01      -1.41909E+01      -1.53289E+07      -2.99252E+02      -6.54366E-01       4.00304E+06      -1.26884E+00       1.53298E+07       1.91959E+01       4.55662E+03       5.83335E+00      -8.55718E-02       1.24880E+06       1.51271E+01       1.00077E+03      -1.02615E+01       6.81576E+00       1.53655E+07      -4.08893E+00       5.64535E+08       4.69393E+02       4.53792E+04      -1.53653E+07      -2.19613E+02       1.25756E+03      -3.06023E+03       5.64509E+08       2.81840E+02      -5.09905E+01       3.22438E+03       1.44709E+01       7.56865E+04       1.81724E+03       8.65807E+09
         19   0.23750E+00       3.96202E+06       7.46125E+00      -2.60191E+01      -1.32946E+01      -1.52386E+07      -2.79474E+02      -5.76438E-01       3.96221E+06      -1.15883E+00       1.52394E+07       1.77893E+01       4.11469E+03       6.46464E+00      -7.48451E-02       1.24539E+06       1.17125E+01       1.01020E+03      -9.41485E+00       6.72690E+00       1.52711E+07      -5.05896E+00       5.62924E+08       4.21203E+02       4.17077E+04      -1.52710E+07      -2.04430E+02       1.25467E+03      -2.85761E+03       5.62898E+08       2.76464E+02      -4.70944E+01       2.87838E+03       1.37240E+01       6.93154E+04       1.67914E+03       8.57089E+09
         20   0.25000E+00       3.91933E+06       6.90069E+00      -2.27920E+01      -1.23627E+01      -1.51440E+07      -2.58979E+02      -4.96097E-01       3.91951E+06      -1.04523E+00       1.51447E+07       1.63341E+01       3.65818E+03       7.11562E+00      -6.41377E-02       1.24180E+06       8.19543E+00       1.01991E+03      -8.53755E+00       6.63399E+00       1.51722E+07      -6.06331E+00       5.61231E+08       3.71348E+02       3.79143E+04      -1.51721E+07      -1.88716E+02       1.25165E+03      -2.64789E+03       5.61205E+08       2.70788E+02      -4.30701E+01       2.52109E+03       1.29520E+01       6.27335E+04       1.53670E+03       8.47970E+09
         21   0.26250E+00       3.87482E+06       6.32206E+00      -1.94723E+01      -1.13970E+01      -1.50450E+07      -2.37818E+02      -4.13598E-01       3.87500E+06      -9.28388E-01       1.50455E+07       1.48343E+01       3.18844E+03       7.78423E+00      -5.35317E-02       1.23805E+06       4.58759E+00       1.02985E+03      -7.63179E+00       6.53711E+00       1.50688E+07      -7.09932E+00       5.59455E+08       3.19961E+02       3.40101E+04      -1.50688E+07      -1.72514E+02       1.24849E+03      -2.43162E+03       5.59428E+08       2.64816E+02      -3.89293E+01       2.15356E+03       1.21569E+01       5.59598E+04       1.39038E+03       8.38461E+09
         22   0.27500E+00       3.82855E+06       5.72684E+00      -1.60700E+01      -1.03998E+01      -1.49417E+07      -2.16046E+02      -3.29210E-01       3.82871E+06      -8.08642E-01       1.49422E+07       1.32939E+01       2.70684E+03       8.46831E+00      -4.31098E-02       1.23413E+06       9.01039E-01       1.04000E+03      -6.69990E+00       6.43641E+00       1.49610E+07      -8.16426E+00       5.57597E+08       2.67187E+02       3.00065E+04      -1.49611E+07      -1.55866E+02       1.24520E+03      -2.20939E+03       5.57570E+08       2.58546E+02      -3.46843E+01       1.77692E+03       1.13412E+01       4.90145E+04       1.24063E+03       8.28572E+09
         23   0.28750E+00       3.78057E+06       5.11655E+00      -1.25951E+01      -9.37304E+00      -1.48343E+07      -1.93717E+02      -2.43203E-01       3.78072E+06      -6.86353E-01       1.48346E+07       1.17172E+01       2.21481E+03       9.16568E+00      -3.29559E-02       1.23004E+06      -2.85186E+00       1.05031E+03      -5.74422E+00       6.33201E+00       1.48490E+07      -9.25529E+00       5.55657E+08       2.13167E+02       2.59151E+04      -1.48491E+07      -1.38818E+02       1.24177E+03      -1.98180E+03       5.55631E+08       2.51981E+02      -3.03478E+01       1.39227E+03       1.05072E+01       4.19178E+04       1.08793E+03       8.18315E+09
         24   0.30000E+00       3.73093E+06       4.49275E+00      -9.05823E+00      -8.31902E+00      -1.47228E+07      -1.70888E+02      -1.55853E-01       3.73106E+06      -5.61886E-01       1.47229E+07       1.01086E+01       1.71381E+03       9.87409E+00      -2.31543E-02       1.22579E+06      -6.65861E+00       1.06075E+03      -4.76721E+00       6.22407E+00       1.47328E+07      -1.03695E+01       5.53637E+08       1.58052E+02       2.17481E+04      -1.47330E+07      -1.21416E+02       1.23822E+03      -1.74945E+03       5.53611E+08       2.45122E+02      -2.59325E+01       1.00079E+03       9.65726E+00       3.46906E+04       9.32751E+02       8.07701E+09
         25   0.31250E+00       3.67968E+06       3.85704E+00      -5.46980E+00      -7.23994E+00      -1.46072E+07      -1.47615E+02      -6.74419E-02       3.67981E+06      -4.35614E-01       1.46073E+07       8.47229E+00       1.20531E+03       1.05913E+01      -1.37890E-02       1.22137E+06      -1.05064E+01       1.07128E+03      -3.77131E+00       6.11272E+00       1.46125E+07      -1.15040E+01       5.51538E+08       1.01992E+02       1.75175E+04      -1.46128E+07      -1.03706E+02       1.23454E+03      -1.51296E+03       5.51510E+08       2.37973E+02      -2.14514E+01       6.03645E+02       8.79381E+00       2.73539E+04       7.75594E+02       7.96742E+09
         26   0.32500E+00       3.62690E+06       3.21105E+00      -1.84065E+00      -6.13829E+00      -1.44878E+07      -1.23959E+02       2.17450E-02       3.62702E+06      -3.07911E-01       1.44877E+07       6.81290E+00       6.90818E+02       1.13149E+01      -4.94298E-03       1.21680E+06      -1.43825E+01       1.08186E+03      -2.75912E+00       5.99813E+00       1.44883E+07      -1.26557E+01       5.49359E+08       4.51417E+01       1.32356E+04      -1.44886E+07      -8.57370E+01       1.23073E+03      -1.27298E+03       5.49331E+08       2.30536E+02      -1.69180E+01       2.02029E+02       7.91935E+00       1.99297E+04       6.16951E+02       7.85451E+09
         27   0.33750E+00       3.57264E+06       2.55642E+00       1.81845E+00      -5.01638E+00      -1.43645E+07      -9.99779E+01       1.11422E-01       3.57274E+06      -1.79159E-01       1.43643E+07       5.13487E+00       1.71850E+02       1.20427E+01       3.30037E-03       1.21207E+06      -1.82738E+01       1.09245E+03      -1.73317E+00       5.88045E+00       1.43601E+07      -1.38216E+01       5.47101E+08      -1.23443E+01       8.91513E+03      -1.43605E+07      -6.75558E+01       1.22680E+03      -1.03013E+03       5.47073E+08       2.22814E+02      -1.23455E+01      -2.02859E+02       7.03637E+00       1.24393E+04       4.57317E+02       7.73839E+09
         28   0.35000E+00       3.51696E+06       1.89483E+00       5.49643E+00      -3.87683E+00      -1.42374E+07      -7.57330E+01       2.01299E-01       3.51704E+06      -4.97400E-02       1.42371E+07       3.44283E+00      -3.50062E+02       1.27722E+01       1.08607E-02       1.20719E+06      -2.21674E+01       1.10302E+03      -6.96118E-01       5.75986E+00       1.42282E+07      -1.49986E+01       5.44766E+08      -7.03064E+01       4.56855E+03      -1.42287E+07      -4.92121E+01       1.22276E+03      -7.85078E+02       5.44738E+08       2.14813E+02      -7.74764E+00      -6.09791E+02       6.14744E+00       4.90519E+03       2.97200E+02       7.61920E+09
         29   0.36250E+00       3.45991E+06       1.22798E+00       9.18236E+00      -2.72211E+00      -1.41068E+07      -5.12851E+01       2.91088E-01       3.45999E+06       7.99608E-02       1.41063E+07       1.74134E+00      -8.73372E+02       1.35012E+01       1.76577E-02       1.20215E+06      -2.60501E+01       1.11351E+03       3.49414E-01       5.63653E+00       1.40926E+07      -1.61835E+01       5.42353E+08      -1.28587E+02       2.08648E+02      -1.40932E+07      -3.07551E+01       1.21859E+03      -5.38470E+02       5.42325E+08       2.06538E+02      -3.13778E+00      -1.01755E+03       5.25511E+00      -2.65102E+03       1.37098E+02       7.49706E+09
         30   0.37500E+00       3.40158E+06       5.57584E-01       1.28651E+01      -1.55491E+00      -1.39725E+07      -2.66964E+01       3.80498E-01       3.40164E+06       2.09560E-01       1.39719E+07       3.50672E-02      -1.39654E+03       1.42272E+01       2.36148E-02       1.19696E+06      -2.99091E+01       1.12390E+03       1.40071E+00       5.51065E+00       1.39535E+07      -1.73731E+01       5.39865E+08      -1.87025E+02      -4.15194E+03      -1.39541E+07      -1.22345E+01       1.21431E+03      -2.90976E+02       5.39837E+08       1.97994E+02       1.47026E+00      -1.42491E+03       4.36195E+00      -1.02067E+04      -2.24801E+01       7.37211E+09
         31   0.38750E+00       3.34201E+06      -1.14652E-01       1.65337E+01      -3.77841E-01      -1.38348E+07      -2.02844E+00       4.69242E-01       3.34206E+06       3.38671E-01       1.38340E+07      -1.67139E+00      -1.91801E+03       1.49478E+01       2.86563E-02       1.19162E+06      -3.37313E+01       1.13413E+03       2.45511E+00       5.38241E+00       1.38109E+07      -1.85643E+01       5.37301E+08      -2.45461E+02      -8.50035E+03      -1.38116E+07       6.29981E+00       1.20992E+03      -4.32474E+01       5.37272E+08       1.89189E+02       6.06296E+00      -1.83065E+03       3.47053E+00      -1.77400E+04      -1.81038E+02       7.24448E+09
         32   0.40000E+00       3.28127E+06      -7.86995E-01       2.01771E+01       8.06276E-01      -1.36937E+07       2.26559E+01       5.57033E-01       3.28131E+06       4.66914E-01       1.36928E+07      -3.37336E+00      -2.43626E+03       1.56608E+01       3.27112E-02       1.18614E+06      -3.75039E+01       1.14418E+03       3.50986E+00       5.25201E+00       1.36649E+07      -1.97540E+01       5.34662E+08      -3.03733E+02      -1.28240E+04      -1.36657E+07       2.47981E+01       1.20541E+03       2.04042E+02       5.34634E+08       1.80130E+02       1.06266E+01      -2.23354E+03       2.58343E+00      -2.52284E+04      -3.38073E+02       7.11432E+09
         33   0.41250E+00       3.21944E+06      -1.45772E+00       2.37843E+01       1.99475E+00      -1.35494E+07       4.72947E+01       6.43588E-01       3.21946E+06       5.93907E-01       1.35483E+07      -5.06628E+00      -2.94973E+03       1.63638E+01       3.57104E-02       1.18052E+06      -4.12144E+01       1.15400E+03       4.56227E+00       5.11966E+00       1.35158E+07      -2.09388E+01       5.31950E+08      -3.61682E+02      -1.71102E+04      -1.35167E+07       4.32105E+01       1.20080E+03       4.50240E+02       5.31921E+08       1.70826E+02       1.51478E+01      -2.63237E+03       1.70319E+00      -3.26505E+04      -4.93097E+02       6.98174E+09
         34   0.42500E+00       3.15657E+06      -2.12511E+00       2.73446E+01       3.18469E+00      -1.34018E+07       7.18254E+01       7.28627E-01       3.15658E+06       7.19279E-01       1.34007E+07      -6.74550E+00      -3.45693E+03       1.70545E+01       3.75898E-02       1.17475E+06      -4.48502E+01       1.16355E+03       5.60961E+00       4.98557E+00       1.33635E+07      -2.21156E+01       5.29165E+08      -4.19148E+02      -2.13465E+04      -1.33645E+07       6.14877E+01       1.19607E+03       6.94679E+02       5.29135E+08       1.61286E+02       1.96131E+01      -3.02594E+03       8.32394E-01      -3.99839E+04      -6.45619E+02       6.84690E+09
         35   0.43750E+00       3.09272E+06      -2.78744E+00       3.08471E+01       4.37331E+00      -1.32513E+07       9.61864E+01       8.11876E-01       3.09273E+06       8.42657E-01       1.32500E+07      -8.40654E+00      -3.95634E+03       1.77306E+01       3.82876E-02       1.16885E+06      -4.83991E+01       1.17279E+03       6.64916E+00       4.84995E+00       1.32083E+07      -2.32813E+01       5.26307E+08      -4.75974E+02      -2.55205E+04      -1.32093E+07       7.95802E+01       1.19125E+03       9.36713E+02       5.26277E+08       1.51523E+02       2.40094E+01      -3.41307E+03      -2.64730E-02      -4.72075E+04      -7.95167E+02       6.70992E+09
         36   0.45000E+00       3.02799E+06      -3.44300E+00       3.42815E+01       5.55767E+00      -1.30977E+07       1.20316E+02       8.93065E-01       3.02797E+06       9.63681E-01       1.30963E+07      -1.00449E+01      -4.44649E+03       1.83898E+01       3.77488E-02       1.16281E+06      -5.18492E+01       1.18168E+03       7.67824E+00       4.71305E+00       1.30501E+07      -2.44328E+01       5.23378E+08      -5.32002E+02      -2.96200E+04      -1.30512E+07       9.74396E+01       1.18632E+03       1.17569E+03       5.23349E+08       1.41545E+02       2.83235E+01      -3.79257E+03      -8.70898E-01      -5.42998E+04      -9.41267E+02       6.57096E+09
         37   0.46250E+00       2.96241E+06      -4.09012E+00       3.76374E+01       6.73495E+00      -1.29413E+07       1.44153E+02       9.71934E-01       2.96239E+06       1.08199E+00       1.29398E+07      -1.16561E+01      -4.92594E+03       1.90300E+01       3.59205E-02       1.15663E+06      -5.51889E+01       1.19019E+03       8.69417E+00       4.57508E+00       1.28892E+07      -2.55668E+01       5.20379E+08      -5.87080E+02      -3.36330E+04      -1.28904E+07       1.15018E+02       1.18128E+03       1.41097E+03       5.20349E+08       1.31368E+02       3.25429E+01      -4.16332E+03      -1.69846E+00      -6.12403E+04      -1.08347E+03       6.43014E+09
         38   0.47500E+00       2.89606E+06      -4.72713E+00       4.09045E+01       7.90207E+00      -1.27822E+07       1.67637E+02       1.04822E+00       2.89603E+06       1.19725E+00       1.27805E+07      -1.32359E+01      -5.39325E+03       1.96491E+01       3.27573E-02       1.15033E+06      -5.84069E+01       1.19827E+03       9.69429E+00       4.43630E+00       1.27257E+07      -2.66803E+01       5.17310E+08      -6.41055E+02      -3.75480E+04      -1.27269E+07       1.32268E+02       1.17615E+03       1.64192E+03       5.17280E+08       1.21002E+02       3.66548E+01      -4.52419E+03      -2.50673E+00      -6.80082E+04      -1.22132E+03       6.28762E+09
         39   0.48750E+00       2.82901E+06      -5.35237E+00       4.40732E+01       9.05629E+00      -1.26204E+07       1.90709E+02       1.12169E+00       2.82897E+06       1.30911E+00       1.26186E+07      -1.47800E+01      -5.84705E+03       2.02449E+01       2.82170E-02       1.14389E+06      -6.14925E+01       1.20589E+03       1.06760E+01       4.29693E+00       1.25596E+07      -2.77704E+01       5.14173E+08      -6.93780E+02      -4.13533E+04      -1.25609E+07       1.49143E+02       1.17091E+03       1.86794E+03       5.14143E+08       1.10465E+02       4.06474E+01      -4.87409E+03      -3.29339E+00      -7.45841E+04      -1.35440E+03       6.14352E+09
         40   0.50000E+00       2.76133E+06      -5.96424E+00       4.71338E+01       1.01944E+01      -1.24560E+07       2.13310E+02       1.19209E+00       2.76128E+06       1.41726E+00       1.24541E+07      -1.62843E+01      -6.28600E+03       2.08155E+01       2.22647E-02       1.13733E+06      -6.44350E+01       1.21302E+03       1.16367E+01       4.15725E+00       1.23912E+07      -2.88339E+01       5.10968E+08      -7.45107E+02      -4.50381E+04      -1.23925E+07       1.65597E+02       1.16558E+03       2.08840E+03       5.10938E+08       9.97710E+01       4.45085E+01      -5.21195E+03      -4.05612E+00      -8.09482E+04      -1.48229E+03       5.99800E+09
         41   0.51250E+00       2.69308E+06      -6.56116E+00       5.00772E+01       1.13138E+01      -1.22892E+07       2.35384E+02       1.25921E+00       2.69301E+06       1.52136E+00       1.22872E+07      -1.77448E+01      -6.70879E+03       2.13589E+01       1.48702E-02       1.13064E+06      -6.72247E+01       1.21961E+03       1.25738E+01       4.01748E+00       1.22204E+07      -2.98681E+01       5.07696E+08      -7.94898E+02      -4.85914E+04      -1.22218E+07       1.81588E+02       1.16015E+03       2.30274E+03       5.07665E+08       8.89381E+01       4.82271E+01      -5.53677E+03      -4.79272E+00      -8.70823E+04      -1.60459E+03       5.85118E+09
         42   0.52500E+00       2.62432E+06      -7.14157E+00       5.28942E+01       1.24113E+01      -1.21201E+07       2.56874E+02       1.32281E+00       2.62424E+06       1.62114E+00       1.21180E+07      -1.91575E+01      -7.11418E+03       2.18732E+01       6.00994E-03       1.12383E+06      -6.98521E+01       1.22564E+03       1.34850E+01       3.87791E+00       1.20475E+07      -3.08701E+01       5.04358E+08      -8.43013E+02      -5.20031E+04      -1.20490E+07       1.97071E+02       1.15462E+03       2.51036E+03       5.04327E+08       7.79818E+01       5.17918E+01      -5.84754E+03      -5.50101E+00      -9.29679E+04      -1.72091E+03       5.70321E+09
         43   0.53750E+00       2.55513E+06      -7.70399E+00       5.55766E+01       1.34841E+01      -1.19488E+07       2.77726E+02       1.38269E+00       2.55504E+06       1.71629E+00       1.19466E+07      -2.05187E+01      -7.50094E+03       2.23567E+01      -4.33312E-03       1.11690E+06      -7.23083E+01       1.23108E+03       1.43677E+01       3.73879E+00       1.18725E+07      -3.18371E+01       5.00955E+08      -8.89320E+02      -5.52630E+04      -1.18741E+07       2.12005E+02       1.14899E+03       2.71073E+03       5.00924E+08       6.69236E+01       5.51924E+01      -6.14333E+03      -6.17895E+00      -9.85883E+04      -1.83092E+03       5.55422E+09
         44   0.55000E+00       2.48556E+06      -8.24695E+00       5.81160E+01       1.45291E+01      -1.17754E+07       2.97887E+02       1.43867E+00       2.48546E+06       1.80655E+00       1.17730E+07      -2.18248E+01      -7.86795E+03       2.28077E+01      -1.61703E-02       1.10985E+06      -7.45848E+01       1.23588E+03       1.52196E+01       3.60039E+00       1.16956E+07      -3.27664E+01       4.97488E+08      -9.33692E+02      -5.83619E+04      -1.16972E+07       2.26350E+02       1.14327E+03       2.90329E+03       4.97457E+08       5.57810E+01       5.84186E+01      -6.42323E+03      -6.82453E+00      -1.03926E+05      -1.93425E+03       5.40436E+09
         45   0.56250E+00       2.41568E+06      -8.76903E+00       6.05048E+01       1.55437E+01      -1.15999E+07       3.17306E+02       1.49054E+00       2.41557E+06       1.89165E+00       1.15975E+07      -2.30723E+01      -8.21411E+03       2.32245E+01      -2.95054E-02       1.10269E+06      -7.66740E+01       1.24003E+03       1.60385E+01       3.46298E+00       1.15169E+07      -3.36555E+01       4.93958E+08      -9.76006E+02      -6.12905E+04      -1.15185E+07       2.40067E+02       1.13745E+03       3.08754E+03       4.93927E+08       4.45776E+01       6.14610E+01      -6.68640E+03      -7.43587E+00      -1.08967E+05      -2.03060E+03       5.25374E+09
         46   0.57500E+00       2.34555E+06      -9.26889E+00       6.27357E+01       1.65248E+01      -1.14225E+07       3.35933E+02       1.53816E+00       2.34544E+06       1.97136E+00       1.14200E+07      -2.42579E+01      -8.53839E+03       2.36057E+01      -4.43362E-02       1.09541E+06      -7.85687E+01       1.24348E+03       1.68221E+01       3.32685E+00       1.13365E+07      -3.45019E+01       4.90365E+08      -1.01614E+03      -6.40406E+04      -1.13382E+07       2.53120E+02       1.13154E+03       3.26299E+03       4.90334E+08       3.33326E+01       6.43106E+01      -6.93202E+03      -8.01115E+00      -1.13695E+05      -2.11966E+03       5.10252E+09
         47   0.58750E+00       2.27524E+06      -9.74522E+00       6.48020E+01       1.74699E+01      -1.12434E+07       3.53722E+02       1.58135E+00       2.27512E+06       2.04544E+00       1.12408E+07      -2.53786E+01      -8.83982E+03       2.39498E+01      -6.06532E-02       1.08801E+06      -8.02623E+01       1.24623E+03       1.75683E+01       3.19226E+00       1.11545E+07      -3.53031E+01       4.86711E+08      -1.05400E+03      -6.66040E+04      -1.11562E+07       2.65473E+02       1.12553E+03       3.42918E+03       4.86680E+08       2.20715E+01       6.69590E+01      -7.15935E+03      -8.54871E+00      -1.18097E+05      -2.20117E+03       4.95080E+09
         48   0.60000E+00       2.20480E+06      -1.01968E+01       6.66972E+01       1.83759E+01      -1.10625E+07       3.70627E+02       1.61997E+00       2.20467E+06       2.11370E+00       1.10598E+07      -2.64314E+01      -9.11752E+03       2.42557E+01      -7.84405E-02       1.08051E+06      -8.17491E+01       1.24824E+03       1.82750E+01       3.05950E+00       1.09710E+07      -3.60571E+01       4.82997E+08      -1.08946E+03      -6.89734E+04      -1.09727E+07       2.77094E+02       1.11942E+03       3.58564E+03       4.82966E+08       1.08154E+01       6.93983E+01      -7.36769E+03      -9.04690E+00      -1.22159E+05      -2.27486E+03       4.79874E+09
         49   0.61250E+00       2.13430E+06      -1.06224E+01       6.84155E+01       1.92404E+01      -1.08800E+07       3.86605E+02       1.65391E+00       2.13416E+06       2.17594E+00       1.08773E+07      -2.74135E+01      -9.37064E+03       2.45220E+01      -9.76743E-02       1.07290E+06      -8.30239E+01       1.24948E+03       1.89403E+01       2.92884E+00       1.07861E+07      -3.67614E+01       4.79223E+08      -1.12243E+03      -7.11418E+04      -1.07879E+07       2.87950E+02       1.11322E+03       3.73198E+03       4.79191E+08      -4.07990E-01       7.16214E+01      -7.55639E+03      -9.50430E+00      -1.25870E+05      -2.34054E+03       4.64645E+09
         50   0.62500E+00       2.06380E+06      -1.10209E+01       6.99517E+01       2.00606E+01      -1.06961E+07       4.01615E+02       1.68303E+00       2.06365E+06       2.23199E+00       1.06933E+07      -2.83225E+01      -9.59844E+03       2.47478E+01      -1.18325E-01       1.06518E+06      -8.40821E+01       1.24994E+03       1.95625E+01       2.80057E+00       1.06000E+07      -3.74143E+01       4.75390E+08      -1.15282E+03      -7.31031E+04      -1.06019E+07       2.98014E+02       1.10692E+03       3.86780E+03       4.75359E+08      -1.15761E+01       7.36217E+01      -7.72487E+03      -9.91949E+00      -1.29219E+05      -2.39798E+03       4.49406E+09
         51   0.63750E+00       1.99334E+06      -1.13913E+01       7.13010E+01       2.08341E+01      -1.05108E+07       4.15620E+02       1.70725E+00       1.99319E+06       2.28170E+00       1.05079E+07      -2.91559E+01      -9.80022E+03       2.49321E+01      -1.40354E-01       1.05736E+06      -8.49200E+01       1.24960E+03       2.01396E+01       2.67496E+00       1.04128E+07      -3.80137E+01       4.71500E+08      -1.18054E+03      -7.48514E+04      -1.04147E+07       3.07258E+02       1.10051E+03       3.99274E+03       4.71468E+08      -2.26593E+01       7.53934E+01      -7.87261E+03      -1.02913E+01      -1.32196E+05      -2.44703E+03       4.34169E+09
         52   0.65000E+00       1.92300E+06      -1.17327E+01       7.24590E+01       2.15582E+01      -1.03242E+07       4.28583E+02       1.72649E+00       1.92284E+06       2.32493E+00       1.03213E+07      -2.99117E+01      -9.97540E+03       2.50741E+01      -1.63719E-01       1.04943E+06      -8.55347E+01       1.24843E+03       2.06701E+01       2.55231E+00       1.02245E+07      -3.85578E+01       4.67552E+08      -1.20553E+03      -7.63819E+04      -1.02264E+07       3.15657E+02       1.09401E+03       4.10647E+03       4.67521E+08      -3.36339E+01       7.69311E+01      -7.99913E+03      -1.06185E+01      -1.34792E+05      -2.48753E+03       4.18946E+09
         53   0.66250E+00       1.85281E+06      -1.20440E+01       7.34223E+01       2.22308E+01      -1.01364E+07       4.40472E+02       1.74067E+00       1.85265E+06       2.36158E+00       1.01335E+07      -3.05879E+01      -1.01234E+04       2.51730E+01      -1.88367E-01       1.04141E+06      -8.59236E+01       1.24643E+03       2.11525E+01       2.43288E+00       1.00353E+07      -3.90451E+01       4.63549E+08      -1.22769E+03      -7.76900E+04      -1.00372E+07       3.23189E+02       1.08741E+03       4.20869E+03       4.63517E+08      -4.44686E+01       7.82304E+01      -8.10405E+03      -1.09002E+01      -1.37000E+05      -2.51938E+03       4.03748E+09
         54   0.67500E+00       1.78284E+06      -1.23245E+01       7.41876E+01       2.28493E+01      -9.94753E+06       4.51254E+02       1.74974E+00       1.78268E+06       2.39155E+00       9.94458E+06      -3.11829E+01      -1.02439E+04       2.52284E+01      -2.14243E-01       1.03328E+06      -8.60854E+01       1.24358E+03       2.15853E+01       2.31696E+00       9.84530E+06      -3.94741E+01       4.59491E+08      -1.24699E+03      -7.87721E+04      -9.84722E+06       3.29834E+02       1.08070E+03       4.29912E+03       4.59459E+08      -5.51383E+01       7.92875E+01      -8.18701E+03      -1.11354E+01      -1.38814E+05      -2.54247E+03       3.88587E+09
         55   0.68750E+00       1.71314E+06      -1.25735E+01       7.47526E+01       2.34118E+01      -9.75768E+06       4.60904E+02       1.75368E+00       1.71297E+06       2.41478E+00       9.75470E+06      -3.16952E+01      -1.03363E+04       2.52397E+01      -2.41279E-01       1.02505E+06      -8.60192E+01       1.23987E+03       2.19672E+01       2.20482E+00       9.65455E+06      -3.98434E+01       4.55378E+08      -1.26335E+03      -7.96251E+04      -9.65648E+06       3.35573E+02       1.07389E+03       4.37753E+03       4.55346E+08      -6.56105E+01       8.00994E+01      -8.24776E+03      -1.13235E+01      -1.40227E+05      -2.55675E+03       3.73473E+09
         56   0.70000E+00       1.64375E+06      -1.27902E+01       7.51152E+01       2.39160E+01      -9.56696E+06       4.69397E+02       1.75246E+00       1.64358E+06       2.43120E+00       9.56396E+06      -3.21236E+01      -1.04006E+04       2.52066E+01      -2.69407E-01       1.01673E+06      -8.57248E+01       1.23528E+03       2.22972E+01       2.09673E+00       9.46319E+06      -4.01518E+01       4.51212E+08      -1.27673E+03      -8.02466E+04      -9.46513E+06       3.40393E+02       1.06698E+03       4.44371E+03       4.51181E+08      -7.58593E+01       8.06635E+01      -8.28607E+03      -1.14639E+01      -1.41236E+05      -2.56219E+03       3.58418E+09
         57   0.71250E+00       1.57473E+06      -1.29741E+01       7.52742E+01       2.43602E+01      -9.37542E+06       4.76709E+02       1.74607E+00       1.57456E+06       2.44079E+00       9.37241E+06      -3.24671E+01      -1.04363E+04       2.51290E+01      -2.98548E-01       1.00831E+06      -8.52031E+01       1.22981E+03       2.25740E+01       1.99295E+00       9.27130E+06      -4.03983E+01       4.46994E+08      -1.28710E+03      -8.06347E+04      -9.27324E+06       3.44278E+02       1.05995E+03       4.49749E+03       4.46962E+08      -8.58513E+01       8.09784E+01      -8.30182E+03      -1.15560E+01      -1.41837E+05      -2.55878E+03       3.43431E+09
         58   0.72500E+00       1.50612E+06      -1.31247E+01       7.52289E+01       2.47422E+01      -9.18322E+06       4.82822E+02       1.73454E+00       1.50594E+06       2.44354E+00       9.18020E+06      -3.27249E+01      -1.04435E+04       2.50069E+01      -3.28620E-01       9.99801E+05      -8.44553E+01       1.22346E+03       2.27969E+01       1.89375E+00       9.07898E+06      -4.05820E+01       4.42724E+08      -1.29443E+03      -8.07887E+04      -9.08093E+06       3.47221E+02       1.05282E+03       4.53873E+03       4.42693E+08      -9.55593E+01       8.10431E+01      -8.29493E+03      -1.15996E+01      -1.42030E+05      -2.54653E+03       3.28524E+09
         59   0.73750E+00       1.43796E+06      -1.32415E+01       7.49791E+01       2.50608E+01      -8.99038E+06       4.87720E+02       1.71789E+00       1.43779E+06       2.43946E+00       8.98737E+06      -3.28965E+01      -1.04221E+04       2.48401E+01      -3.59534E-01       9.91194E+05      -8.34838E+01       1.21622E+03       2.29650E+01       1.79939E+00       8.88632E+06      -4.07021E+01       4.38404E+08      -1.29868E+03      -8.07079E+04      -8.88826E+06       3.49211E+02       1.04557E+03       4.56732E+03       4.38373E+08      -1.04950E+02       8.08576E+01      -8.26538E+03      -1.15945E+01      -1.41813E+05      -2.52551E+03       3.13703E+09
         60   0.75000E+00       1.37031E+06      -1.33243E+01       7.45253E+01       2.53139E+01      -8.79706E+06       4.91390E+02       1.69618E+00       1.37013E+06       2.42859E+00       8.79406E+06      -3.29815E+01      -1.03722E+04       2.46291E+01      -3.91194E-01       9.82497E+05      -8.22913E+01       1.20809E+03       2.30777E+01       1.71011E+00       8.69343E+06      -4.07582E+01       4.34034E+08      -1.29985E+03      -8.03929E+04      -8.69536E+06       3.50246E+02       1.03821E+03       4.58319E+03       4.34003E+08      -1.13996E+02       8.04223E+01      -8.21324E+03      -1.15406E+01      -1.41188E+05      -2.49579E+03       2.98981E+09
         61   0.76250E+00       1.30319E+06      -1.33727E+01       7.38686E+01       2.55005E+01      -8.60329E+06       4.93822E+02       1.66945E+00       1.30301E+06       2.41097E+00       8.60031E+06      -3.29801E+01      -1.02938E+04       2.43741E+01      -4.23501E-01       9.73708E+05      -8.08815E+01       1.19906E+03       2.31345E+01       1.62616E+00       8.50037E+06      -4.07498E+01       4.29614E+08      -1.29794E+03      -7.98445E+04      -8.50228E+06       3.50321E+02       1.03073E+03       4.58630E+03       4.29583E+08      -1.22663E+02       7.97388E+01      -8.13865E+03      -1.14381E+01      -1.40155E+05      -2.45748E+03       2.84363E+09
         62   0.77500E+00       1.23665E+06      -1.33867E+01       7.30107E+01       2.56191E+01      -8.40920E+06       4.95009E+02       1.63780E+00       1.23647E+06       2.38668E+00       8.40625E+06      -3.28922E+01      -1.01872E+04       2.40756E+01      -4.56351E-01       9.64830E+05      -7.92588E+01       1.18916E+03       2.31349E+01       1.54776E+00       8.30725E+06      -4.06766E+01       4.25147E+08      -1.29294E+03      -7.90646E+04      -8.30914E+06       3.49437E+02       1.02313E+03       4.57665E+03       4.25117E+08      -1.30924E+02       7.88090E+01      -8.04177E+03      -1.12871E+01      -1.38718E+05      -2.41071E+03       2.69861E+09
         63   0.78750E+00       1.17072E+06      -1.33661E+01       7.19540E+01       2.56688E+01      -8.21485E+06       4.94948E+02       1.60131E+00       1.17054E+06       2.35582E+00       8.21192E+06      -3.27185E+01      -1.00527E+04       2.37342E+01      -4.89632E-01       9.55862E+05      -7.74281E+01       1.17837E+03       2.30788E+01       1.47515E+00       8.11413E+06      -4.05385E+01       4.20632E+08      -1.28487E+03      -7.80554E+04      -8.11600E+06       3.47596E+02       1.01540E+03       4.55426E+03       4.20602E+08      -1.38745E+02       7.76359E+01      -7.92289E+03      -1.10880E+01      -1.36882E+05      -2.35564E+03       2.55481E+09
         64   0.80000E+00       1.10545E+06      -1.33110E+01       7.07012E+01       2.56484E+01      -8.02034E+06       4.93637E+02       1.56009E+00       1.10527E+06       2.31849E+00       8.01747E+06      -3.24594E+01      -9.89061E+03       2.33506E+01      -5.23234E-01       9.46809E+05      -7.53952E+01       1.16671E+03       2.29660E+01       1.40853E+00       7.92111E+06      -4.03358E+01       4.16072E+08      -1.27374E+03      -7.68201E+04      -7.92296E+06       3.44803E+02       1.00756E+03       4.51921E+03       4.16042E+08      -1.46099E+02       7.62229E+01      -7.78232E+03      -1.08414E+01      -1.34651E+05      -2.29245E+03       2.41231E+09
         65   0.81250E+00       1.04085E+06      -1.32215E+01       6.92557E+01       2.55575E+01      -7.82573E+06       4.91079E+02       1.51427E+00       1.04068E+06       2.27483E+00       7.82290E+06      -3.21159E+01      -9.70146E+03       2.29256E+01      -5.57035E-01       9.37666E+05      -7.31664E+01       1.15419E+03       2.27966E+01       1.34811E+00       7.72825E+06      -4.00685E+01       4.11465E+08      -1.25959E+03      -7.53624E+04      -7.73006E+06       3.41067E+02       9.99577E+02       4.47158E+03       4.11435E+08      -1.52953E+02       7.45743E+01      -7.62044E+03      -1.05480E+01      -1.32032E+05      -2.22137E+03       2.27118E+09
         66   0.82500E+00       9.76971E+05      -1.30978E+01       6.76217E+01       2.53951E+01      -7.63114E+06       4.87280E+02       1.46399E+00       9.76798E+05       2.22499E+00       7.62836E+06      -3.16892E+01      -9.48579E+03       2.24602E+01      -5.90919E-01       9.28440E+05      -7.07489E+01       1.14082E+03       2.25707E+01       1.29409E+00       7.53565E+06      -3.97372E+01       4.06814E+08      -1.24245E+03      -7.36867E+04      -7.53743E+06       3.36397E+02       9.91470E+02       4.41153E+03       4.06784E+08      -1.59282E+02       7.26951E+01      -7.43772E+03      -1.02084E+01      -1.29033E+05      -2.14263E+03       2.13149E+09
         67   0.83750E+00       9.13829E+05      -1.29402E+01       6.58037E+01       2.51612E+01      -7.43658E+06       4.82249E+02       1.40939E+00       9.13660E+05       2.16914E+00       7.43386E+06      -3.11805E+01      -9.24417E+03       2.19556E+01      -6.24756E-01       9.19125E+05      -6.81502E+01       1.12660E+03       2.22887E+01       1.24663E+00       7.34334E+06      -3.93423E+01       4.02118E+08      -1.22237E+03      -7.17978E+04      -7.34508E+06       3.30805E+02       9.83225E+02       4.33920E+03       4.02089E+08      -1.65052E+02       7.05910E+01      -7.23466E+03      -9.82364E+00      -1.25663E+05      -2.05649E+03       1.99330E+09
         68   0.85000E+00       8.51460E+05      -1.27490E+01       6.38068E+01       2.48552E+01      -7.24220E+06       4.75996E+02       1.35065E+00       8.51295E+05       2.10747E+00       7.23956E+06      -3.05914E+01      -8.97733E+03       2.14128E+01      -6.58427E-01       9.09729E+05      -6.53786E+01       1.11157E+03       2.19511E+01       1.20591E+00       7.15144E+06      -3.88847E+01       3.97380E+08      -1.19939E+03      -6.97017E+04      -7.15314E+06       3.24308E+02       9.74846E+02       4.25481E+03       3.97351E+08      -1.70240E+02       6.82683E+01      -7.01183E+03      -9.39476E+00      -1.21932E+05      -1.96323E+03       1.85668E+09
         69   0.86250E+00       7.89881E+05      -1.25247E+01       6.16366E+01       2.44774E+01      -7.04801E+06       4.68538E+02       1.28795E+00       7.89720E+05       2.04017E+00       7.04544E+06      -2.99237E+01      -8.68600E+03       2.08333E+01      -6.91795E-01       9.00246E+05      -6.24428E+01       1.09574E+03       2.15584E+01       1.17209E+00       6.95997E+06      -3.83651E+01       3.92598E+08      -1.17357E+03      -6.74043E+04      -6.96163E+06       3.16922E+02       9.66323E+02       4.15857E+03       3.92570E+08      -1.74815E+02       6.57340E+01      -6.76987E+03      -8.92297E+00      -1.17850E+05      -1.86317E+03       1.72166E+09
         70   0.87500E+00       7.29122E+05      -1.22679E+01       5.92993E+01       2.40277E+01      -6.85414E+06       4.59891E+02       1.22146E+00       7.28966E+05       1.96749E+00       6.85165E+06      -2.91794E+01      -8.37106E+03       2.02183E+01      -7.24737E-01       8.90683E+05      -5.93522E+01       1.07912E+03       2.11114E+01       1.14529E+00       6.76904E+06      -3.77848E+01       3.87776E+08      -1.14499E+03      -6.49127E+04      -6.77065E+06       3.08669E+02       9.57659E+02       4.05076E+03       3.87748E+08      -1.78753E+02       6.29956E+01      -6.50946E+03      -8.40954E+00      -1.13429E+05      -1.75662E+03       1.58832E+09
         71   0.88750E+00       6.69197E+05      -1.19791E+01       5.68016E+01       2.35068E+01      -6.66059E+06       4.50077E+02       1.15141E+00       6.69046E+05       1.88965E+00       6.65818E+06      -2.83606E+01      -8.03337E+03       1.95695E+01      -7.57116E-01       8.81034E+05      -5.61166E+01       1.06174E+03       2.06109E+01       1.12565E+00       6.57866E+06      -3.71448E+01       3.82912E+08      -1.11372E+03      -6.22341E+04      -6.58021E+06       2.99570E+02       9.48846E+02       3.93166E+03       3.82884E+08      -1.82026E+02       6.00615E+01      -6.23135E+03      -7.85596E+00      -1.08683E+05      -1.64396E+03       1.45669E+09
         72   0.90000E+00       6.10131E+05      -1.16592E+01       5.41505E+01       2.29147E+01      -6.46750E+06       4.39119E+02       1.07800E+00       6.09986E+05       1.80691E+00       6.46519E+06      -2.74698E+01      -7.67393E+03       1.88886E+01      -7.88805E-01       8.71306E+05      -5.27464E+01       1.04362E+03       2.00580E+01       1.11327E+00       6.38893E+06      -3.64466E+01       3.78009E+08      -1.07984E+03      -5.93766E+04      -6.39043E+06       2.89650E+02       9.39885E+02       3.80161E+03       3.77982E+08      -1.84614E+02       5.69405E+01      -5.93634E+03      -7.26372E+00      -1.03626E+05      -1.52552E+03       1.32682E+09
         73   0.91250E+00       5.51935E+05      -1.13088E+01       5.13537E+01       2.22528E+01      -6.27487E+06       4.27044E+02       1.00146E+00       5.51796E+05       1.71953E+00       6.27265E+06      -2.65095E+01      -7.29376E+03       1.81770E+01      -8.19667E-01       8.61493E+05      -4.92523E+01       1.02479E+03       1.94538E+01       1.10823E+00       6.19988E+06      -3.56916E+01       3.73066E+08      -1.04344E+03      -5.63486E+04      -6.20131E+06       2.78935E+02       9.30769E+02       3.66096E+03       3.73039E+08      -1.86490E+02       5.36418E+01      -5.62525E+03      -6.63454E+00      -9.82719E+04      -1.40172E+03       1.19874E+09
         74   0.92500E+00       4.94629E+05      -1.09289E+01       4.84190E+01       2.15215E+01      -6.08281E+06       4.13881E+02       9.22020E-01       4.94496E+05       1.62780E+00       6.08070E+06      -2.54824E+01      -6.89398E+03       1.74368E+01      -8.49573E-01       8.51601E+05      -4.56454E+01       1.00527E+03       1.87996E+01       1.11063E+00       6.01158E+06      -3.48815E+01       3.68085E+08      -1.00461E+03      -5.31591E+04      -6.01296E+06       2.67455E+02       9.21501E+02       3.51008E+03       3.68058E+08      -1.87637E+02       5.01755E+01      -5.29900E+03      -5.97015E+00      -9.26367E+04      -1.27295E+03       1.07249E+09
         75   0.93750E+00       4.38221E+05      -1.05205E+01       4.53550E+01       2.07225E+01      -5.89134E+06       3.99662E+02       8.39929E-01       4.38096E+05       1.53200E+00       5.88933E+06      -2.43916E+01      -6.47571E+03       1.66698E+01      -8.78389E-01       8.41627E+05      -4.19373E+01       9.85103E+02       1.80967E+01       1.12049E+00       5.82406E+06      -3.40181E+01       3.63065E+08      -9.63468E+02      -4.98175E+04      -5.82536E+06       2.55241E+02       9.12071E+02       3.34940E+03       3.63039E+08      -1.88030E+02       4.65520E+01      -4.95851E+03      -5.27250E+00      -8.67373E+04      -1.13963E+03       9.48103E+08
         76   0.95000E+00       3.82729E+05      -1.00844E+01       4.21704E+01       1.98567E+01      -5.70057E+06       3.84423E+02       7.55439E-01       3.82610E+05       1.43245E+00       5.69868E+06      -2.32401E+01      -6.04018E+03       1.58779E+01      -9.05991E-01       8.31575E+05      -3.81398E+01       9.64309E+02       1.73468E+01       1.13789E+00       5.63739E+06      -3.31035E+01       3.58009E+08      -9.20112E+02      -4.63339E+04      -5.63864E+06       2.42326E+02       9.02483E+02       3.17935E+03       3.57983E+08      -1.87655E+02       4.27820E+01      -4.60477E+03      -4.54350E+00      -8.05908E+04      -1.00219E+03       8.25607E+08
         77   0.96250E+00       3.28153E+05      -9.62194E+00       3.88744E+01       1.89261E+01      -5.51048E+06       3.68199E+02       6.68808E-01       3.28042E+05       1.32945E+00       5.50871E+06      -2.20310E+01      -5.58863E+03       1.50632E+01      -9.32243E-01       8.21440E+05      -3.42651E+01       9.42919E+02       1.65514E+01       1.16281E+00       5.45158E+06      -3.21394E+01       3.52916E+08      -8.74656E+02      -4.27183E+04      -5.45275E+06       2.28744E+02       8.92728E+02       3.00038E+03       3.52890E+08      -1.86492E+02       3.88770E+01      -4.23879E+03      -3.78529E+00      -7.42154E+04      -8.61086E+02       7.05007E+08
         78   0.97500E+00       2.74509E+05      -9.13416E+00       3.54765E+01       1.79320E+01      -5.32121E+06       3.51031E+02       5.80304E-01       2.74406E+05       1.22334E+00       5.31956E+06      -2.07680E+01      -5.12239E+03       1.42278E+01      -9.57028E-01       8.11228E+05      -3.03255E+01       9.20972E+02       1.57124E+01       1.19527E+00       5.26672E+06      -3.11283E+01       3.47788E+08      -8.27225E+02      -3.89817E+04      -5.26782E+06       2.14533E+02       8.82810E+02       2.81299E+03       3.47763E+08      -1.84530E+02       3.48487E+01      -3.86163E+03      -2.99997E+00      -6.76295E+04      -7.16767E+02       5.86346E+08
         79   0.98750E+00       2.21795E+05      -8.62231E+00       3.19864E+01       1.68769E+01      -5.13273E+06       3.32961E+02       4.90198E-01       2.21700E+05       1.11445E+00       5.13120E+06      -1.94544E+01      -4.64277E+03       1.33739E+01      -9.80217E-01       8.00934E+05      -2.63335E+01       8.98498E+02       1.48315E+01       1.23524E+00       5.08280E+06      -3.00723E+01       3.42624E+08      -7.77942E+02      -3.51348E+04      -5.08382E+06       1.99731E+02       8.72719E+02       2.61767E+03       3.42600E+08      -1.81752E+02       3.07092E+01      -3.47437E+03      -2.18988E+00      -6.08529E+04      -5.69704E+02       4.69617E+08
         80   0.10000E+01       1.70022E+05      -8.08772E+00       2.84141E+01       1.57624E+01      -4.94515E+06       3.14034E+02       3.98769E-01       1.69936E+05       1.00312E+00       4.94376E+06      -1.80940E+01      -4.15118E+03       1.25036E+01      -1.00170E+00       7.90564E+05      -2.23021E+01       8.75538E+02       1.39109E+01       1.28270E+00       4.89989E+06      -2.89741E+01       3.37427E+08      -7.26940E+02      -3.11894E+04      -4.90085E+06       1.84378E+02       8.62462E+02       2.41498E+03       3.37403E+08      -1.78151E+02       2.64709E+01      -3.07814E+03      -1.35725E+00      -5.39050E+04      -4.20372E+02       3.54852E+08
         81   0.10125E+01       1.19186E+05      -7.53170E+00       2.47700E+01       1.45914E+01      -4.75848E+06       2.94294E+02       3.06297E-01       1.19109E+05       8.89695E-01       4.75720E+06      -1.66904E+01      -3.64903E+03       1.16193E+01      -1.02135E+00       7.80112E+05      -1.82440E+01       8.52124E+02       1.29526E+01       1.33756E+00       4.71801E+06      -2.78359E+01       3.32195E+08      -6.74351E+02      -2.71567E+04      -4.71888E+06       1.68515E+02       8.52028E+02       2.20544E+03       3.32172E+08      -1.73714E+02       2.21466E+01      -2.67407E+03      -5.04557E-01      -4.68067E+04      -2.69257E+02       2.42038E+08
         82   0.10250E+01       6.92930E+04      -6.95572E+00       2.10645E+01       1.33661E+01      -4.57279E+06       2.73792E+02       2.13069E-01       6.92246E+04       7.74535E-01       4.57166E+06      -1.52477E+01      -3.13777E+03       1.07232E+01      -1.03906E+00       7.69586E+05      -1.41722E+01       8.28299E+02       1.19588E+01       1.39976E+00       4.53720E+06      -2.66606E+01       3.26931E+08      -6.20319E+02      -2.30490E+04      -4.53800E+06       1.52185E+02       8.41423E+02       1.98964E+03       3.26909E+08      -1.68439E+02       1.77492E+01      -2.26335E+03       3.65813E-01      -3.95785E+04      -1.16843E+02       1.31201E+08
         83   0.10375E+01       2.03366E+04      -6.36120E+00       1.73084E+01       1.20897E+01      -4.38809E+06       2.52578E+02       1.19368E-01       2.02777E+04       6.57993E-01       4.38709E+06      -1.37697E+01      -2.61888E+03       9.81768E+00      -1.05473E+00       7.58978E+05      -1.00997E+01       8.04097E+02       1.09317E+01       1.46919E+00       4.35747E+06      -2.54508E+01       3.21635E+08      -5.64982E+02      -1.88781E+04      -4.35819E+06       1.35432E+02       8.30638E+02       1.76814E+03       3.21613E+08      -1.62318E+02       1.32921E+01      -1.84714E+03       1.25126E+00      -3.22418E+04       3.63738E+01       2.23211E+07
         84   0.10500E+01      -2.76799E+04      -5.74970E+00       1.35124E+01       1.07645E+01      -4.20447E+06       2.30703E+02       2.54862E-02      -2.77298E+04       5.40435E-01       4.20361E+06      -1.22605E+01      -2.09386E+03       8.90513E+00      -1.06826E+00       7.48296E+05      -6.03954E+00       7.79564E+02       9.87397E+00       1.54574E+00       4.17888E+06      -2.42095E+01       3.16308E+08      -5.08492E+02      -1.46567E+04      -4.17952E+06       1.18302E+02       8.19678E+02       1.54156E+03       3.16286E+08      -1.55352E+02       8.78858E+00      -1.42666E+03       2.14931E+00      -2.48181E+04       1.89902E+02      -8.45844E+07
         85   0.10625E+01      -7.47666E+04      -5.12275E+00       9.68753E+00       9.39434E+00      -4.02191E+06       2.08221E+02      -6.82905E-02      -7.48068E+04       4.22220E-01       4.02118E+06      -1.07243E+01      -1.56420E+03       7.98787E+00      -1.07954E+00       7.37534E+05      -2.00459E+00       7.54736E+02       8.78778E+00       1.62925E+00       4.00143E+06      -2.29394E+01       3.10949E+08      -4.50996E+02      -1.03968E+04      -4.00198E+06       1.00841E+02       8.08537E+02       1.31051E+03       3.10928E+08      -1.47539E+02       4.25226E+00      -1.00312E+03       3.05728E+00      -1.73292E+04       3.43243E+02      -1.89539E+08
         86   0.10750E+01      -1.20922E+05      -4.48198E+00       5.84482E+00       7.98186E+00      -3.84050E+06       1.85189E+02      -1.61671E-01      -1.20953E+05       3.03717E-01       3.83992E+06      -9.16522E+00      -1.03147E+03       7.06836E+00      -1.08851E+00       7.26699E+05       1.99222E+00       7.29658E+02       7.67588E+00       1.71956E+00       3.82516E+06      -2.16437E+01       3.05561E+08      -3.92648E+02      -6.11146E+03      -3.82563E+06       8.30956E+01       7.97219E+02       1.07561E+03       3.05541E+08      -1.38885E+02      -3.03239E-01      -5.77754E+02       3.97259E+00      -9.79702E+03       4.95907E+02      -2.92532E+08
         87   0.10875E+01      -1.66161E+05      -3.82901E+00       1.99533E+00       6.53106E+00      -3.66023E+06       1.61662E+02      -2.54371E-01      -1.66182E+05       1.85285E-01       3.65978E+06      -7.58745E+00      -4.97172E+02       6.14892E+00      -1.09507E+00       7.15784E+05       5.93827E+00       7.04368E+02       6.54074E+00       1.81649E+00       3.65006E+06      -2.03252E+01       3.00143E+08      -3.33601E+02      -1.81289E+03      -3.65045E+06       6.51134E+01       7.85718E+02       8.37499E+02       3.00123E+08      -1.29391E+02      -4.86415E+00      -1.51780E+02       4.89251E+00      -2.24380E+03       6.47397E+02      -3.93596E+08
         88   0.11000E+01      -2.10483E+05      -3.16555E+00      -1.84982E+00       5.04507E+00      -3.48117E+06       1.37698E+02      -3.46103E-01      -2.10495E+05       6.72919E-02       3.48088E+06      -5.99534E+00       3.71316E+01       5.23203E+00      -1.09914E+00       7.04796E+05       9.82090E+00       6.78913E+02       5.38521E+00       1.91984E+00       3.47619E+06      -1.89872E+01       2.94697E+08      -2.74014E+02       2.48592E+03      -3.47650E+06       4.69444E+01       7.74039E+02       5.96825E+02       2.94678E+08      -1.19070E+02      -9.41675E+00       2.73558E+02       5.81441E+00       5.30841E+03       7.97230E+02      -4.92720E+08
         89   0.11125E+01      -2.53905E+05      -2.49326E+00      -5.67955E+00       3.52817E+00      -3.30332E+06       1.13357E+02      -4.36588E-01      -2.53907E+05      -4.99061E-02       3.30315E+06      -4.39311E+00       5.69921E+02       4.31998E+00      -1.10067E+00       6.93730E+05       1.36279E+01       6.53330E+02       4.21189E+00       2.02937E+00       3.30352E+06      -1.76328E+01       2.89222E+08      -2.14042E+02       6.77253E+03      -3.30375E+06       2.86358E+01       7.62176E+02       3.54229E+02       2.89204E+08      -1.07929E+02      -1.39473E+01       6.97040E+02       6.73555E+00       1.28373E+04       9.44919E+02      -5.89946E+08
         90   0.11250E+01      -2.96430E+05      -1.81393E+00      -9.48281E+00       1.98375E+00      -3.12674E+06       8.86985E+01      -5.25546E-01      -2.96423E+05      -1.65947E-01       3.12673E+06      -2.78511E+00       1.09964E+03       3.41523E+00      -1.09959E+00       6.82592E+05       1.73471E+01       6.27667E+02       3.02375E+00       2.14485E+00       3.13212E+06      -1.62653E+01       2.83721E+08      -1.53848E+02       1.10341E+04      -3.13227E+06       1.02386E+01       7.50136E+02       1.10380E+02       2.83703E+08      -9.59847E+01      -1.84420E+01       1.11743E+03       7.65327E+00       2.03209E+04       1.08999E+03      -6.85268E+08
         91   0.11375E+01      -3.38076E+05      -1.12926E+00      -1.32486E+01       4.16397E-01      -2.95142E+06       6.37830E+01      -6.12707E-01      -3.38059E+05      -2.80484E-01       2.95154E+06      -1.17559E+00       1.62478E+03       2.52004E+00      -1.09586E+00       6.71377E+05       2.09667E+01       6.01963E+02       1.82347E+00       2.26599E+00       2.96196E+06      -1.48878E+01       2.78192E+08      -9.35871E+01       1.52582E+04      -2.96203E+06      -8.19897E+00       7.37912E+02      -1.34076E+02       2.78175E+08      -8.32498E+01      -2.28875E+01       1.53352E+03       8.56481E+00       2.77371E+04       1.23198E+03      -7.78728E+08
         92   0.11500E+01      -3.78849E+05      -4.41061E-01      -1.69662E+01      -1.17028E+00      -2.77744E+06       3.86726E+01      -6.97800E-01      -3.78823E+05      -3.93165E-01       2.77770E+06       4.31113E-01       2.14382E+03       1.63679E+00      -1.08943E+00       6.60091E+05       2.44754E+01       5.76265E+02       6.14122E-01       2.39253E+00       2.79309E+06      -1.35038E+01       2.72638E+08      -3.34230E+01       1.94323E+04      -2.79308E+06      -2.66257E+01       7.25513E+02      -3.78462E+02       2.72622E+08      -6.97465E+01      -2.72702E+01       1.94411E+03       9.46755E+00       3.50643E+04       1.37043E+03      -8.70330E+08
         93   0.11625E+01      -4.18768E+05       2.48920E-01      -2.06247E+01      -2.77145E+00      -2.60475E+06       1.34286E+01      -7.80569E-01      -4.18733E+05      -5.03654E-01       2.60514E+06       2.03079E+00       2.65528E+03       7.67680E-01      -1.08027E+00       6.48730E+05       2.78621E+01       5.50610E+02      -6.01524E-01       2.52416E+00       2.62547E+06      -1.21163E+01       2.67058E+08       2.64886E+01       2.35441E+04      -2.62538E+06      -4.49935E+01       7.12933E+02      -6.22132E+02       2.67042E+08      -5.54936E+01      -3.15768E+01       2.34800E+03       1.03588E+01       4.22807E+04       1.50489E+03      -9.60118E+08
         94   0.11750E+01      -4.57841E+05       9.38871E-01      -2.42137E+01      -4.38326E+00      -2.43345E+06      -1.18861E+01      -8.60757E-01      -4.57797E+05      -6.11615E-01       2.43398E+06       3.61918E+00       3.15768E+03      -8.49801E-02      -1.06835E+00       6.37298E+05       3.11160E+01       5.25046E+02      -1.82036E+00       2.66055E+00       2.45917E+06      -1.07288E+01       2.61454E+08       8.59858E+01       2.75815E+04      -2.45900E+06      -6.32513E+01       7.00179E+02      -8.64413E+02       2.61439E+08      -4.05178E+01      -3.57943E+01       2.74403E+03       1.12359E+01       4.93655E+04       1.63494E+03      -1.04810E+09
         95   0.11875E+01      -4.96089E+05       1.62702E+00      -2.77228E+01      -6.00074E+00      -2.26350E+06      -3.72096E+01      -9.38124E-01      -4.96036E+05      -7.16727E-01       2.26416E+06       5.19214E+00       3.64958E+03      -9.19096E-01      -1.05366E+00       6.25793E+05       3.42271E+01       4.99610E+02      -3.03956E+00       2.80136E+00       2.29414E+06      -9.34457E+00       2.55826E+08       1.44915E+02       3.15327E+04      -2.29390E+06      -8.13512E+01       6.87248E+02      -1.10466E+03       2.55811E+08      -2.48438E+01      -3.99100E+01       3.13106E+03       1.20962E+01       5.62977E+04       1.76015E+03      -1.13432E+09
         96   0.12000E+01      -5.33521E+05       2.31157E+00      -3.11420E+01      -7.61983E+00      -2.09497E+06      -6.24787E+01      -1.01243E+00      -5.33459E+05      -8.18674E-01       2.09576E+06       6.74551E+00       4.12955E+03      -1.73247E+00      -1.03619E+00       6.14219E+05       3.71854E+01       4.74347E+02      -4.25597E+00       2.94624E+00       2.13044E+06      -7.96698E+00       2.50175E+08       2.03117E+02       3.53859E+04      -2.13013E+06      -9.92431E+01       6.74148E+02      -1.34222E+03       2.50161E+08      -8.50419E+00      -4.39112E+01       3.50796E+03       1.29372E+01       6.30569E+04       1.88012E+03      -1.21880E+09
         97   0.12125E+01      -5.70160E+05       2.99075E+00      -3.44613E+01      -9.23539E+00      -1.92783E+06      -8.76319E+01      -1.08345E+00      -5.70090E+05      -9.17157E-01       1.92874E+06       8.27531E+00       4.59625E+03      -2.52313E+00      -1.01596E+00       6.02573E+05       3.99820E+01       4.49295E+02      -5.46677E+00       3.09480E+00       1.96803E+06      -6.59912E+00       2.44501E+08       2.60441E+02       3.91299E+04      -1.96764E+06      -1.16880E+02       6.60876E+02      -1.57645E+03       2.44488E+08       8.47170E+00      -4.77860E+01       3.87366E+03       1.37565E+01       6.96234E+04       1.99447E+03      -1.30157E+09
         98   0.12250E+01      -6.06015E+05       3.66278E+00      -3.76714E+01      -1.08433E+01      -1.76215E+06      -1.12606E+02      -1.15097E+00      -6.05937E+05      -1.01188E+00       1.76318E+06       9.77751E+00       5.04832E+03      -3.28902E+00      -9.92967E-01       5.90860E+05       4.26080E+01       4.24497E+02      -6.66879E+00       3.24667E+00       1.80696E+06      -5.24451E+00       2.38806E+08       3.16733E+02       4.27535E+04      -1.80650E+06      -1.34213E+02       6.47440E+02      -1.80671E+03       2.38793E+08       2.60459E+01      -5.15223E+01       4.22709E+03       1.45514E+01       7.59779E+04       2.10282E+03      -1.38266E+09
         99   0.12375E+01      -6.41110E+05       4.32592E+00      -4.07629E+01      -1.24383E+01      -1.59788E+06      -1.37341E+02      -1.21478E+00      -6.41025E+05      -1.10256E+00       1.59903E+06       1.12483E+01       5.48448E+03      -4.02830E+00      -9.67242E-01       5.79077E+05       4.50554E+01       3.99989E+02      -7.85922E+00       3.40144E+00       1.64719E+06      -3.90614E+00       2.33088E+08       3.71849E+02       4.62462E+04      -1.64666E+06      -1.51198E+02       6.33838E+02      -2.03239E+03       2.33077E+08       4.41830E+01      -5.51089E+01       4.56725E+03       1.53197E+01       8.21017E+04       2.20483E+03      -1.46212E+09
        100   0.12500E+01      -6.75456E+05       4.97841E+00      -4.37270E+01      -1.40162E+01      -1.43511E+06      -1.61773E+02      -1.27469E+00      -6.75363E+05      -1.18895E+00       1.43637E+06       1.26839E+01       5.90347E+03      -4.73907E+00      -9.38817E-01       5.67230E+05       4.73166E+01       3.75812E+02      -9.03494E+00       3.55868E+00       1.48876E+06      -2.58743E+00       2.27352E+08       4.25640E+02       4.95975E+04      -1.48817E+06      -1.67785E+02       6.20079E+02      -2.25286E+03       2.27341E+08       6.28408E+01      -5.85349E+01       4.89314E+03       1.60590E+01       8.79769E+04       2.30018E+03      -1.53997E+09
        101   0.12625E+01      -7.09077E+05       5.61859E+00      -4.65553E+01      -1.55718E+01      -1.27378E+06      -1.85845E+02      -1.33053E+00      -7.08977E+05      -1.27077E+00       1.27515E+06       1.40806E+01       6.30411E+03      -5.41969E+00      -9.07737E-01       5.55314E+05       4.93848E+01       3.52001E+02      -1.01932E+01       3.71797E+00       1.33164E+06      -1.29131E+00       2.21595E+08       4.77967E+02       5.27978E+04      -1.33098E+06      -1.83933E+02       6.06162E+02      -2.46755E+03       2.21584E+08       8.19786E+01      -6.17896E+01       5.20383E+03       1.67671E+01       9.35862E+04       2.38855E+03      -1.61625E+09
        102   0.12750E+01      -7.41985E+05       6.24474E+00      -4.92396E+01      -1.71007E+01      -1.11397E+06      -2.09494E+02      -1.38211E+00      -7.41878E+05      -1.34781E+00       1.11545E+06       1.54349E+01       6.68525E+03      -6.06842E+00      -8.74055E-01       5.43337E+05       5.12537E+01       3.28595E+02      -1.13308E+01       3.87887E+00       1.17586E+06      -2.10876E-02       2.15819E+08       5.28691E+02       5.58374E+04      -1.17516E+06      -1.99597E+02       5.92097E+02      -2.67585E+03       2.15810E+08       1.01549E+02      -6.48631E+01       5.49844E+03       1.74418E+01       9.89132E+04       2.46965E+03      -1.69098E+09
        103   0.12875E+01      -7.74203E+05       6.85524E+00      -5.17724E+01      -1.85979E+01      -9.55633E+05      -2.32665E+02      -1.42930E+00      -7.74090E+05      -1.41983E+00       9.57203E+05       1.67435E+01       7.04582E+03      -6.68380E+00      -8.37834E-01       5.31293E+05       5.29177E+01       3.05624E+02      -1.24452E+01       4.04092E+00       1.02140E+06       1.22042E+00       2.10025E+08       5.77682E+02       5.87076E+04      -1.02063E+06      -2.14735E+02       5.77883E+02      -2.87722E+03       2.10016E+08       1.21507E+02      -6.77459E+01       5.77612E+03       1.80811E+01       1.03942E+05       2.54324E+03      -1.76423E+09
        104   0.13000E+01      -8.05744E+05       7.44848E+00      -5.41463E+01      -2.00590E+01      -7.98830E+05      -2.55298E+02      -1.47194E+00      -8.05625E+05      -1.48663E+00       8.00502E+05       1.80029E+01       7.38478E+03      -7.26431E+00      -7.99148E-01       5.19190E+05       5.43719E+01       2.83127E+02      -1.35332E+01       4.20365E+00       8.68294E+05       2.43005E+00       2.04214E+08       6.24809E+02       6.13998E+04      -8.67476E+05      -2.29306E+02       5.63530E+02      -3.07110E+03       2.04205E+08       1.41800E+02      -7.04293E+01       6.03606E+03       1.86830E+01       1.08659E+05       2.60906E+03      -1.83600E+09
        105   0.13125E+01      -8.36632E+05       8.02290E+00      -5.63547E+01      -2.14790E+01      -6.43525E+05      -2.77338E+02      -1.50991E+00      -8.36508E+05      -1.54803E+00       6.45277E+05       1.92103E+01       7.70120E+03      -7.80869E+00      -7.58079E-01       5.07025E+05       5.56122E+01       2.61132E+02      -1.45925E+01       4.36661E+00       7.16502E+05       3.60513E+00       1.98385E+08       6.69952E+02       6.39062E+04      -7.15629E+05      -2.43271E+02       5.49040E+02      -3.25697E+03       1.98377E+08       1.62378E+02      -7.29047E+01       6.27754E+03       1.92456E+01       1.13049E+05       2.66690E+03      -1.90635E+09
        106   0.13250E+01      -8.66880E+05       8.57697E+00      -5.83913E+01      -2.28537E+01      -4.89775E+05      -2.98731E+02      -1.54310E+00      -8.66750E+05      -1.60384E+00       4.91615E+05       2.03625E+01       7.99416E+03      -8.31563E+00      -7.14720E-01       4.94803E+05       5.66350E+01       2.39672E+02      -1.56199E+01       4.52930E+00       5.66062E+05       4.74266E+00       1.92542E+08       7.12990E+02       6.62192E+04      -5.65148E+05      -2.56592E+02       5.34422E+02      -3.43432E+03       1.92534E+08       1.83187E+02      -7.51645E+01       6.49986E+03       1.97672E+01       1.17099E+05       2.71659E+03      -1.97531E+09
[...]
       4772   0.59650E+02       2.00522E+04      -4.09830E-01       3.13352E+00       1.16370E+00      -2.85662E+04       1.98042E+01       1.21585E-01       2.00379E+04       2.04244E-02       2.84429E+04      -1.00198E+00      -3.97890E+02       4.96272E-01      -2.29828E-01      -6.85515E+03      -1.68651E+00       1.57392E+01       5.01116E+00      -1.09517E+00       2.72350E+04      -6.87883E+00       1.67308E+05      -1.08506E+02      -3.88652E+03      -2.73084E+04       2.26455E+01       4.10417E-02       2.95436E+02       1.66598E+05      -1.18858E+02       6.21920E+00      -3.45982E+02      -1.05218E+00      -6.38748E+03      -7.78882E+01       7.98360E+06
       4773   0.59663E+02       2.06231E+04      -6.95002E-01       6.69172E+00       3.81406E+00      -3.01761E+04       2.54375E+01       1.87040E-01       2.05960E+04       1.10809E-01       2.99270E+04      -1.57760E+00      -8.64848E+02       1.30119E+00      -2.13188E-01      -7.14155E+03      -3.98443E+00       2.74304E+01       7.09034E+00      -1.29647E+00       2.71435E+04      -7.38594E+00       1.23186E+05      -1.40945E+02      -7.93206E+03      -2.72916E+04       3.20686E+01      -2.43709E+00       4.25733E+02       1.21949E+05      -1.52666E+02       1.05312E+01      -7.51530E+02      -1.89827E+00      -1.33865E+04      -1.67616E+02       8.39635E+06
       4774   0.59675E+02       2.11693E+04      -9.77956E-01       1.02298E+01       6.45172E+00      -3.17679E+04       3.10162E+01       2.52101E-01       2.11337E+04       2.00799E-01       3.13899E+04      -2.14729E+00      -1.32922E+03       2.10219E+00      -1.96184E-01      -7.42251E+03      -6.27962E+00       3.90371E+01       9.15251E+00      -1.49636E+00       2.70225E+04      -7.88621E+00       7.99266E+04      -1.73094E+02      -1.19539E+04      -2.72461E+04       4.14041E+01      -4.91521E+00       5.54849E+02       7.90255E+04      -1.86121E+02       1.48176E+01      -1.15483E+03      -2.73829E+00      -2.03448E+04      -2.56893E+02       8.78357E+06
       4775   0.59688E+02       2.17099E+04      -1.25791E+00       1.37379E+01       9.07136E+00      -3.33199E+04       3.65196E+01       3.16589E-01       2.16616E+04       2.90136E-01       3.28185E+04      -2.70994E+00      -1.78960E+03       2.89698E+00      -1.78935E-01      -7.70561E+03      -8.56581E+00       5.05249E+01       1.11929E+01      -1.69413E+00       2.68938E+04      -8.37915E+00       3.65712E+04      -2.04863E+02      -1.59410E+04      -2.71918E+04       5.06264E+01      -7.39156E+00       6.82397E+02       3.50843E+04      -2.19159E+02       1.90660E+01      -1.55466E+03      -3.57016E+00      -2.72440E+04      -3.45456E+02       9.18412E+06
       4776   0.59700E+02       2.22249E+04      -1.53408E+00       1.72050E+01       1.16622E+01      -3.48476E+04       4.19400E+01       3.80305E-01       2.21679E+04       3.78528E-01       3.42204E+04      -3.26372E+00      -2.24465E+03       3.68305E+00      -1.61493E-01      -7.98155E+03      -1.08341E+01       6.18631E+01       1.32050E+01      -1.88938E+00       2.67401E+04      -8.86292E+00      -5.70709E+03      -2.36171E+02      -1.98809E+04      -2.71130E+04       5.97119E+01      -9.85047E+00       8.08080E+02      -6.85397E+03      -2.51672E+02       2.32638E+01      -1.94986E+03      -4.39119E+00      -3.40617E+04      -4.33035E+02       9.55690E+06
       4777   0.59713E+02       2.27326E+04      -1.80570E+00       2.06215E+01       1.42190E+01      -3.63298E+04       4.72571E+01       4.43073E-01       2.26634E+04       4.65724E-01       3.55823E+04      -3.80755E+00      -2.69302E+03       4.45813E+00      -1.43976E-01      -8.25794E+03      -1.30783E+01       7.30182E+01       1.51841E+01      -2.08141E+00       2.65827E+04      -9.33706E+00      -4.78245E+04      -2.66929E+02      -2.37628E+04      -2.70269E+04       6.86357E+01      -1.22902E+01       9.31521E+02      -4.95397E+04      -2.83599E+02       2.73990E+01      -2.33924E+03      -5.19937E+00      -4.07797E+04      -5.19372E+02       9.94304E+06
       4778   0.59725E+02       2.32134E+04      -2.07200E+00       2.39767E+01       1.67313E+01      -3.77822E+04       5.24635E+01       5.04698E-01       2.31362E+04       5.51440E-01       3.69118E+04      -4.33967E+00      -3.13338E+03       5.21976E+00      -1.26435E-01      -8.52555E+03      -1.52896E+01       8.39602E+01       1.71239E+01      -2.26982E+00       2.64038E+04      -9.79975E+00      -8.85828E+04      -2.97060E+02      -2.75743E+04      -2.69210E+04       7.73748E+01      -1.46954E+01       1.05243E+03      -9.00028E+04      -3.14835E+02       3.14590E+01      -2.72168E+03      -5.99207E+00      -4.73763E+04      -6.04203E+02       1.02996E+07
       4779   0.59738E+02       2.36867E+04      -2.33227E+00       2.72612E+01       1.91940E+01      -3.91823E+04       5.75396E+01       5.65011E-01       2.35974E+04       6.35429E-01       3.81975E+04      -4.85904E+00      -3.56443E+03       5.96578E+00      -1.08990E-01      -8.79189E+03      -1.74621E+01       9.46567E+01       1.90198E+01      -2.45395E+00       2.62268E+04      -1.02506E+01      -1.29016E+05      -3.26478E+02      -3.13052E+04      -2.68123E+04       8.59054E+01      -1.70645E+01       1.17045E+03      -1.30972E+05      -3.45320E+02       3.54324E+01      -3.09602E+03      -6.76736E+00      -5.38339E+04      -6.87280E+02       1.06662E+07
       4780   0.59750E+02       2.41318E+04      -2.58576E+00       3.04648E+01       2.15969E+01      -4.05470E+04       6.24787E+01       6.23824E-01       2.40350E+04       7.17419E-01       3.94462E+04      -5.36396E+00      -3.98490E+03       6.69380E+00      -9.16899E-02      -9.04784E+03      -1.95871E+01       1.05079E+02       2.08658E+01      -2.63341E+00       2.60318E+04      -1.06878E+01      -1.67881E+05      -3.55110E+02      -3.49437E+04      -2.66871E+04       9.42055E+01      -1.93824E+01       1.28531E+03      -1.69492E+05      -3.74955E+02       3.93071E+01      -3.46117E+03      -7.52272E+00      -6.01316E+04      -7.68346E+02       1.10022E+07
       4781   0.59763E+02       2.45680E+04      -2.83178E+00       3.35785E+01       2.39354E+01      -4.18552E+04       6.72615E+01       6.80976E-01       2.44596E+04       7.97175E-01       4.06444E+04      -5.85348E+00      -4.39353E+03       7.40175E+00      -7.46512E-02      -9.30094E+03      -2.16590E+01       1.15197E+02       2.26577E+01      -2.80758E+00       2.58426E+04      -1.11112E+01      -2.06102E+05      -3.82874E+02      -3.84797E+04      -2.65622E+04       1.02253E+02      -2.16479E+01       1.39666E+03      -2.08271E+05      -4.03683E+02       4.30723E+01      -3.81603E+03      -8.25631E+00      -6.62528E+04      -8.47165E+02       1.13468E+07
       4782   0.59775E+02       2.49751E+04      -3.06963E+00       3.65926E+01       2.61995E+01      -4.31223E+04       7.18823E+01       7.36288E-01       2.48597E+04       8.74437E-01       4.18014E+04      -6.32596E+00      -4.78913E+03       8.08736E+00      -5.79199E-02      -9.54208E+03      -2.36696E+01       1.24982E+02       2.43895E+01      -2.97608E+00       2.56401E+04      -1.15188E+01      -2.42565E+05      -4.09699E+02      -4.19022E+04      -2.64252E+04       1.10026E+02      -2.38462E+01       1.50424E+03      -2.44449E+05      -4.31409E+02       4.67163E+01      -4.15959E+03      -8.96573E+00      -7.21774E+04      -9.23493E+02       1.16589E+07
       4783   0.59788E+02       2.53726E+04      -3.29866E+00       3.94987E+01       2.83852E+01      -4.43271E+04       7.63226E+01       7.89610E-01       2.52463E+04       9.48984E-01       4.29047E+04      -6.78053E+00      -5.17051E+03       8.74870E+00      -4.16105E-02      -9.77890E+03      -2.56136E+01       1.34406E+02       2.60575E+01      -3.13832E+00       2.54459E+04      -1.19106E+01      -2.78204E+05      -4.35511E+02      -4.52018E+04      -2.62913E+04       1.17504E+02      -2.59765E+01       1.60772E+03      -2.80569E+05      -4.58083E+02       5.02290E+01      -4.49079E+03      -9.64928E+00      -7.78898E+04      -9.97108E+02       1.19789E+07
       4784   0.59800E+02       2.57406E+04      -3.51823E+00       4.22877E+01       3.04829E+01      -4.54861E+04       8.05775E+01       8.40774E-01       2.56075E+04       1.02057E+00       4.39612E+04      -7.21566E+00      -5.53657E+03       9.38364E+00      -2.57639E-02      -1.00022E+04      -2.74831E+01       1.43444E+02       2.76560E+01      -3.29396E+00       2.52433E+04      -1.22849E+01      -3.11815E+05      -4.60243E+02      -4.83681E+04      -2.61487E+04       1.24668E+02      -2.80245E+01       1.70688E+03      -3.13890E+05      -4.83615E+02       5.35996E+01      -4.80868E+03      -1.03047E+01      -8.33714E+04      -1.06778E+03       1.22657E+07
       4785   0.59812E+02       2.60971E+04      -3.72774E+00       4.49519E+01       3.24891E+01      -4.65780E+04       8.46295E+01       8.89642E-01       2.59543E+04       1.08900E+00       4.49608E+04      -7.63058E+00      -5.88620E+03       9.99039E+00      -1.04900E-02      -1.02199E+04      -2.92733E+01       1.52069E+02       2.91816E+01      -3.44244E+00       2.50519E+04      -1.26415E+01      -3.44502E+05      -4.83825E+02      -5.13925E+04      -2.60130E+04       1.31497E+02      -2.99901E+01       1.80141E+03      -3.47046E+05      -5.07958E+02       5.68188E+01      -5.11230E+03      -1.09304E+01      -8.86079E+04      -1.13531E+03       1.25564E+07
       4786   0.59825E+02       2.64233E+04      -3.92659E+00       4.74829E+01       3.43947E+01      -4.76194E+04       8.84747E+01       9.36058E-01       2.62748E+04       1.15404E+00       4.59102E+04      -8.02384E+00      -6.21839E+03       1.05670E+01       4.17535E-03      -1.04228E+04      -3.09768E+01       1.60258E+02       3.06290E+01      -3.58348E+00       2.48542E+04      -1.29788E+01      -3.74948E+05      -5.06199E+02      -5.42654E+04      -2.58714E+04       1.37976E+02      -3.18595E+01       1.89109E+03      -3.77132E+05      -5.31030E+02       5.98766E+01      -5.40077E+03      -1.15244E+01      -9.35818E+04      -1.19948E+03       1.28136E+07
       4787   0.59838E+02       2.67382E+04      -4.11424E+00       4.98736E+01       3.61968E+01      -4.85898E+04       9.20965E+01       9.79900E-01       2.65805E+04       1.21551E+00       4.67968E+04      -8.39478E+00      -6.53214E+03       1.11118E+01       1.81287E-02      -1.06185E+04      -3.25895E+01       1.67987E+02       3.19954E+01      -3.71653E+00       2.46743E+04      -1.32968E+01      -4.04251E+05      -5.27300E+02      -5.69790E+04      -2.57400E+04       1.44085E+02      -3.36331E+01       1.97565E+03      -4.06956E+05      -5.52792E+02       6.27645E+01      -5.67323E+03      -1.20853E+01      -9.82805E+04      -1.26011E+03       1.30741E+07
       4788   0.59850E+02       2.70221E+04      -4.29017E+00       5.21166E+01       3.78871E+01      -4.95053E+04       9.54922E+01       1.02102E+00       2.68595E+04       1.27321E+00       4.76305E+04      -8.74208E+00      -6.82654E+03       1.16231E+01       3.13407E-02      -1.07982E+04      -3.41046E+01       1.75235E+02       3.32758E+01      -3.84136E+00       2.44907E+04      -1.35939E+01      -4.31200E+05      -5.47076E+02      -5.95246E+04      -2.56051E+04       1.49810E+02      -3.52978E+01       2.05490E+03      -4.33575E+05      -5.73165E+02       6.54736E+01      -5.92888E+03      -1.26110E+01      -1.02688E+05      -1.31701E+03       1.32986E+07
       4789   0.59863E+02       2.72931E+04      -4.45388E+00       5.42057E+01       3.94633E+01      -5.03460E+04       9.86465E+01       1.05933E+00       2.71223E+04       1.32697E+00       4.83983E+04      -9.06520E+00      -7.10069E+03       1.20995E+01       4.37147E-02      -1.09698E+04      -3.55184E+01       1.81980E+02       3.44678E+01      -3.95749E+00       2.43257E+04      -1.38704E+01      -4.56772E+05      -5.65469E+02      -6.18955E+04      -2.54834E+04       1.55134E+02      -3.68547E+01       2.12860E+03      -4.59622E+05      -5.92120E+02       6.79965E+01      -6.16695E+03      -1.31006E+01      -1.06794E+05      -1.37001E+03       1.35272E+07
       4790   0.59875E+02       2.75328E+04      -4.60492E+00       5.61342E+01       4.09176E+01      -5.11283E+04       1.01558E+02       1.09468E+00       2.73583E+04       1.37662E+00       4.91093E+04      -9.36293E+00      -7.35381E+03       1.25393E+01       5.52289E-02      -1.11243E+04      -3.68248E+01       1.88204E+02       3.55670E+01      -4.06471E+00       2.41621E+04      -1.41246E+01      -4.79860E+05      -5.82434E+02      -6.40839E+04      -2.53594E+04       1.60044E+02      -3.82916E+01       2.19658E+03      -4.82345E+05      -6.09583E+02       7.03253E+01      -6.38676E+03      -1.35522E+01      -1.10583E+05      -1.41895E+03       1.37180E+07
       4791   0.59888E+02       2.77594E+04      -4.74287E+00       5.78969E+01       4.22485E+01      -5.18323E+04       1.04212E+02       1.12699E+00       2.75774E+04       1.42202E+00       4.97529E+04      -9.63487E+00      -7.58513E+03       1.29414E+01       6.57954E-02      -1.12695E+04      -3.80210E+01       1.93889E+02       3.65715E+01      -4.16259E+00       2.40173E+04      -1.43569E+01      -5.01476E+05      -5.97922E+02      -6.60843E+04      -2.52534E+04       1.64526E+02      -3.96106E+01       2.25862E+03      -5.04449E+05      -6.25535E+02       7.24536E+01      -6.58763E+03      -1.39650E+01      -1.14047E+05      -1.46369E+03       1.39114E+07
       4792   0.59900E+02       2.79535E+04      -4.86735E+00       5.94881E+01       4.34491E+01      -5.24757E+04       1.06608E+02       1.15615E+00       2.77692E+04       1.46301E+00       5.03364E+04      -9.87994E+00      -7.79398E+03       1.33045E+01       7.54005E-02      -1.13967E+04      -3.91015E+01       1.99021E+02       3.74773E+01      -4.25099E+00       2.38763E+04      -1.45658E+01      -5.20465E+05      -6.11895E+02      -6.78898E+04      -2.51460E+04       1.68569E+02      -4.07998E+01       2.31461E+03      -5.23005E+05      -6.39909E+02       7.43747E+01      -6.76900E+03      -1.43373E+01      -1.17174E+05      -1.50408E+03       1.40671E+07
       4793   0.59913E+02       2.81349E+04      -4.97801E+00       6.09036E+01       4.45186E+01      -5.30366E+04       1.08735E+02       1.18210E+00       2.79438E+04       1.49949E+00       5.08496E+04      -1.00979E+01      -7.97973E+03       1.36275E+01       8.39650E-02      -1.15138E+04      -4.00641E+01       2.03583E+02       3.82830E+01      -4.32953E+00       2.37588E+04      -1.47517E+01      -5.37862E+05      -6.24313E+02      -6.94959E+04      -2.50588E+04       1.72162E+02      -4.18624E+01       2.36434E+03      -5.40932E+05      -6.52691E+02       7.60835E+01      -6.93030E+03      -1.46685E+01      -1.19955E+05      -1.54002E+03       1.42231E+07
       4794   0.59925E+02       2.82833E+04      -5.07455E+00       6.21387E+01       4.54508E+01      -5.35356E+04       1.10592E+02       1.20473E+00       2.80907E+04       1.53133E+00       5.13015E+04      -1.02877E+01      -8.14185E+03       1.39094E+01       9.14853E-02      -1.16121E+04      -4.09043E+01       2.07563E+02       3.89855E+01      -4.39811E+00       2.36459E+04      -1.49133E+01      -5.52550E+05      -6.35144E+02      -7.08973E+04      -2.49737E+04       1.75295E+02      -4.27876E+01       2.40773E+03      -5.55199E+05      -6.63827E+02       7.75745E+01      -7.07108E+03      -1.49574E+01      -1.22382E+05      -1.57138E+03       1.43406E+07
       4795   0.59938E+02       2.84180E+04      -5.15669E+00       6.31903E+01       4.62458E+01      -5.39486E+04       1.12168E+02       1.22400E+00       2.82200E+04       1.55844E+00       5.16799E+04      -1.04494E+01      -8.27984E+03       1.41495E+01       9.78908E-02      -1.16997E+04      -4.16207E+01       2.10949E+02       3.95836E+01      -4.45641E+00       2.35578E+04      -1.50511E+01      -5.65510E+05      -6.44357E+02      -7.20904E+04      -2.49064E+04       1.77961E+02      -4.35791E+01       2.44463E+03      -5.68664E+05      -6.73309E+02       7.88438E+01      -7.19090E+03      -1.52033E+01      -1.24448E+05      -1.59808E+03       1.44595E+07
       4796   0.59950E+02       2.85195E+04      -5.22421E+00       6.40547E+01       4.68983E+01      -5.42976E+04       1.13467E+02       1.23984E+00       2.83211E+04       1.58073E+00       5.19962E+04      -1.05821E+01      -8.39331E+03       1.43468E+01       1.03189E-01      -1.17680E+04      -4.22094E+01       2.13734E+02       4.00748E+01      -4.50440E+00       2.34752E+04      -1.51639E+01      -5.75706E+05      -6.51931E+02      -7.30711E+04      -2.48439E+04       1.80151E+02      -4.42272E+01       2.47497E+03      -5.78437E+05      -6.81090E+02       7.98872E+01      -7.28944E+03      -1.54053E+01      -1.26147E+05      -1.62004E+03       1.45385E+07
       4797   0.59963E+02       2.86074E+04      -5.27692E+00       6.47299E+01       4.74091E+01      -5.45609E+04       1.14477E+02       1.25222E+00       2.84047E+04       1.59814E+00       5.22372E+04      -1.06858E+01      -8.48190E+03       1.45010E+01       1.07318E-01      -1.18250E+04      -4.26700E+01       2.15907E+02       4.04587E+01      -4.54181E+00       2.34206E+04      -1.52523E+01      -5.84125E+05      -6.57841E+02      -7.38373E+04      -2.48019E+04       1.81861E+02      -4.47369E+01       2.49863E+03      -5.87326E+05      -6.87173E+02       8.07021E+01      -7.36637E+03      -1.55632E+01      -1.27474E+05      -1.63718E+03       1.46184E+07
       4798   0.59975E+02       2.86618E+04      -5.31468E+00       6.52134E+01       4.77739E+01      -5.47584E+04       1.15204E+02       1.26107E+00       2.84599E+04       1.61061E+00       5.24134E+04      -1.07599E+01      -8.54538E+03       1.46114E+01       1.10297E-01      -1.18623E+04      -4.29995E+01       2.17465E+02       4.07333E+01      -4.56866E+00       2.33719E+04      -1.53152E+01      -5.89742E+05      -6.62075E+02      -7.43858E+04      -2.47654E+04       1.83086E+02      -4.50991E+01       2.51560E+03      -5.92473E+05      -6.91520E+02       8.12857E+01      -7.42149E+03      -1.56762E+01      -1.28423E+05      -1.64947E+03       1.46582E+07
       4799   0.59988E+02       2.87023E+04      -5.33738E+00       6.55043E+01       4.79943E+01      -5.48682E+04       1.15638E+02       1.26641E+00       2.84973E+04       1.61812E+00       5.25170E+04      -1.08046E+01      -8.58353E+03       1.46778E+01       1.12075E-01      -1.18880E+04      -4.31982E+01       2.18400E+02       4.08987E+01      -4.58475E+00       2.33509E+04      -1.53533E+01      -5.93482E+05      -6.64619E+02      -7.47158E+04      -2.47486E+04       1.83822E+02      -4.53198E+01       2.52578E+03      -5.96710E+05      -6.94142E+02       8.16367E+01      -7.45462E+03      -1.57442E+01      -1.28995E+05      -1.65685E+03       1.46981E+07
       4800   0.60000E+02       2.87095E+04      -5.34495E+00       6.56012E+01       4.80669E+01      -5.49120E+04       1.15785E+02       1.26818E+00       2.85060E+04       1.62062E+00       5.25542E+04      -1.08194E+01      -8.59627E+03       1.46999E+01       1.12681E-01      -1.18938E+04      -4.32640E+01       2.18713E+02       4.09536E+01      -4.59016E+00       2.33378E+04      -1.53658E+01      -5.94412E+05      -6.65469E+02      -7.48257E+04      -2.47381E+04       1.84067E+02      -4.53911E+01       2.52919E+03      -5.97170E+05      -6.95009E+02       8.17537E+01      -7.46569E+03      -1.57668E+01      -1.29185E+05      -1.65932E+03       1.46980E+07

This summary file was closed on 15-Feb-2024 at 13:30:30.

