
This summary information was generated by AeroDyn on 15-Feb-2024 at 13:30:29.

======  General Options  ============================================================================
            1  WakeMod        - Type of wake/induction model: Blade-Element/Momentum Theory
            2  AFAeroMod      - Type of blade airfoil aerodynamics model: Beddoes-Leishman unsteady model
            1  TwrPotent      - Type of tower influence on wind based on potential flow around the tower: baseline potential flow
            1  TwrShadow      - Type of tower influence on wind based on downstream tower shadow: Powles tower shadow model
            T  TwrAero        - Calculate tower aerodynamic loads? Yes
            F  CavitCheck     - Perform cavitation check? No
            F  Buoyancy       - Include buoyancy effects? No
======  Blade-Element/Momentum Theory Options  ======================================================
            2  SkewMod        - Type of skewed-wake correction model: Pitt/Peters
            T  TipLoss        - Use the Prandtl tip-loss model? Yes
            T  HubLoss        - Use the Prandtl hub-loss model? Yes
            T  TanInd         - Include tangential induction in BEMT calculations? Yes
            T  AIDrag         - Include the drag term in the axial-induction calculation? Yes
            T  TIDrag         - Include the drag term in the tangential-induction calculation? Yes
   5.0000E-05  IndToler       - Convergence tolerance for BEM induction factors (radians)
======  Beddoes-Leishman Unsteady Airfoil Aerodynamics Options  =====================================
            3  UAMod          - Unsteady Aero Model: Minnema/Pierce variant (changes in Cc and Cm)
            T  FLookup        - Use a lookup for f'? Yes
======  Outputs  ====================================================================================
            9  NBlOuts        - Number of blade nodes selected for output
           50  NumBlNds       - Number of blade nodes in the analysis
               Blade nodes selected for output:  Output node  Analysis node
                                                 -----------  -------------
                                                           1              1
                                                           2              6
                                                           3             11
                                                           4             20
                                                           5             30
                                                           6             38
                                                           7             43
                                                           8             47
                                                           9             50
            0  NTwOuts        - Number of tower nodes selected for output

               Requested Output Channels:
                Col   Parameter            Units               
                ---   ---------------      ---------------     
                  0   Time                 (s)                 
                  1   RtArea               (m^2)               
                  2   RtFldCp              (-)                 
                  3   RtFldCt              (-)                 
                  4   RtFldFxh             (N)                 
                  5   RtFldFyh             (N)                 
                  6   RtFldFzh             (N)                 
                  7   RtFldMxh             (N-m)               
                  8   RtFldMyh             (N-m)               
                  9   RtFldMzh             (N-m)               
                 10   RtSpeed              (rpm)               
                 11   RtTSR                (-)                 
                 12   RtVAvgxh             (m/s)               


               Requested Output Channels at each blade station:
                Col   Parameter            Units               
                ---   ---------------      ---------------     


Buoyancy parameters:

Hub volume (m^3):           0.000
Nacelle volume (m^3):       0.000
Total blade volume (m^3):   0.000
Tower volume (m^3):         0.000
