
This summary information was generated by ElastoDyn on 20-Feb-2024 at 12:40:48.


Turbine features:

            Upwind, 3-bladed rotor with rigid hub.
            The model has 21 of 24 DOFs active (enabled) at start-up.
 Enabled    Platform horizontal surge translation DOF 
 Enabled    Platform horizontal sway translation DOF 
 Enabled    Platform vertical heave translation DOF 
 Enabled    Platform roll tilt rotation DOF 
 Enabled    Platform pitch tilt rotation DOF 
 Enabled    Platform yaw rotation DOF 
 Enabled    1st tower fore-aft bending mode DOF 
 Enabled    1st tower side-to-side bending mode DOF 
 Enabled    2nd tower fore-aft bending mode DOF 
 Enabled    2nd tower side-to-side bending mode DOF 
 Enabled    Nacelle yaw DOF 
 Disabled   Rotor-furl DOF 
 Enabled    Variable speed generator DOF 
 Disabled   Drivetrain rotational-flexibility DOF 
 Disabled   Tail-furl DOF 
 Enabled    1st flapwise bending-mode DOF of blade 1 
 Enabled    1st edgewise bending-mode DOF of blade 1 
 Enabled    2nd flapwise bending-mode DOF of blade 1 
 Enabled    1st flapwise bending-mode DOF of blade 2 
 Enabled    1st edgewise bending-mode DOF of blade 2 
 Enabled    2nd flapwise bending-mode DOF of blade 2 
 Enabled    1st flapwise bending-mode DOF of blade 3 
 Enabled    1st edgewise bending-mode DOF of blade 3 
 Enabled    2nd flapwise bending-mode DOF of blade 3 


Time steps:

    Structural            (s)        0.01250000


Some calculated parameters:

    Hub-Height            (m)           150.000
    Flexible Tower Length (m)           129.495
    Flexible Blade Length (m)           117.000


Rotor mass properties:

    Rotor Mass            (kg)       384126.469
    Rotor Inertia         (kg-m^2)310864640.000
                                        Blade 1      Blade 2      Blade 3
                                        -------      -------      -------
    Mass                  (kg)        64708.824    64708.824    64708.824
    Second Mass Moment    (kg-m^2) 92644720.000 92644720.000 92644720.000
    First Mass Moment     (kg-m)    1740178.250  1740178.250  1740178.250
    Center of Mass        (m)            26.892       26.892       26.892


Additional mass properties:

    Tower-top Mass        (kg)       991401.500
    Tower Mass            (kg)      1262976.250
    Platform Mass         (kg)     17838000.000
    Mass Incl. Platform   (kg)     20092378.000


Interpolated tower properties:

Node  TwFract   HNodes  DHNodes  TMassDen    FAStiff    SSStiff
 (-)      (-)      (m)      (m)    (kg/m)     (Nm^2)     (Nm^2)
   1    0.010    1.295    2.590 20535.311  6.669E+12  6.669E+12
   2    0.030    3.885    2.590 20520.443  6.655E+12  6.655E+12
   3    0.050    6.475    2.590 20505.576  6.640E+12  6.640E+12
   4    0.070    9.065    2.590 20490.711  6.626E+12  6.626E+12
   5    0.090   11.655    2.590 20475.844  6.611E+12  6.611E+12
   6    0.110   14.244    2.590 20468.770  6.604E+12  6.604E+12
   7    0.130   16.834    2.590 20470.008  6.606E+12  6.606E+12
   8    0.150   19.424    2.590 20471.248  6.607E+12  6.607E+12
   9    0.170   22.014    2.590 20472.486  6.608E+12  6.608E+12
  10    0.190   24.604    2.590 20473.725  6.609E+12  6.609E+12
  11    0.210   27.194    2.590 20466.664  6.602E+12  6.602E+12
  12    0.230   29.784    2.590 20450.145  6.586E+12  6.586E+12
  13    0.250   32.374    2.590 20433.625  6.570E+12  6.570E+12
  14    0.270   34.964    2.590 20417.105  6.555E+12  6.555E+12
  15    0.290   37.554    2.590 20400.586  6.539E+12  6.539E+12
  16    0.310   40.143    2.590  7383.238  2.373E+12  2.373E+12
  17    0.330   42.733    2.590  7323.677  2.318E+12  2.318E+12
  18    0.350   45.323    2.590  7264.116  2.262E+12  2.262E+12
  19    0.370   47.913    2.590  7204.556  2.207E+12  2.207E+12
  20    0.390   50.503    2.590  7144.995  2.151E+12  2.151E+12
  21    0.410   53.093    2.590  6615.704  1.960E+12  1.960E+12
  22    0.430   55.683    2.590  6562.900  1.915E+12  1.915E+12
  23    0.450   58.273    2.590  6510.097  1.869E+12  1.869E+12
  24    0.470   60.863    2.590  6457.293  1.824E+12  1.824E+12
  25    0.490   63.453    2.590  6404.490  1.778E+12  1.778E+12
  26    0.510   66.042    2.590  5908.797  1.619E+12  1.619E+12
  27    0.530   68.632    2.590  5882.406  1.598E+12  1.598E+12
  28    0.550   71.222    2.590  5856.014  1.577E+12  1.577E+12
  29    0.570   73.812    2.590  5829.622  1.555E+12  1.555E+12
  30    0.590   76.402    2.590  5803.230  1.534E+12  1.534E+12
  31    0.610   78.992    2.590  5111.735  1.340E+12  1.340E+12
  32    0.630   81.582    2.590  5087.702  1.321E+12  1.321E+12
  33    0.650   84.172    2.590  5063.668  1.303E+12  1.303E+12
  34    0.670   86.762    2.590  5039.635  1.284E+12  1.284E+12
  35    0.690   89.352    2.590  5015.602  1.266E+12  1.266E+12
  36    0.710   91.941    2.590  4337.382  1.083E+12  1.083E+12
  37    0.730   94.531    2.590  4304.542  1.059E+12  1.059E+12
  38    0.750   97.121    2.590  4271.701  1.035E+12  1.035E+12
  39    0.770   99.711    2.590  4238.861  1.011E+12  1.011E+12
  40    0.790  102.301    2.590  4206.020  9.873E+11  9.873E+11
  41    0.810  104.891    2.590  3731.747  8.538E+11  8.538E+11
  42    0.830  107.481    2.590  3634.658  7.944E+11  7.944E+11
  43    0.850  110.071    2.590  3537.570  7.351E+11  7.351E+11
  44    0.870  112.661    2.590  3440.482  6.758E+11  6.758E+11
  45    0.890  115.251    2.590  3343.394  6.164E+11  6.164E+11
  46    0.910  117.840    2.590  3794.558  6.589E+11  6.589E+11
  47    0.930  120.430    2.590  3705.920  6.172E+11  6.172E+11
  48    0.950  123.020    2.590  3617.282  5.754E+11  5.754E+11
  49    0.970  125.610    2.590  3528.643  5.336E+11  5.336E+11
  50    0.990  128.200    2.590  3440.005  4.919E+11  4.919E+11


Interpolated blade 1 properties:

Node  BlFract   RNodes  DRNodes PitchAxis  StrcTwst  BMassDen    FlpStff    EdgStff
 (-)      (-)      (m)      (m)       (-)     (deg)    (kg/m)     (Nm^2)     (Nm^2)
   1    0.025    5.925    5.850     0.486    15.550  2759.818  1.357E+11  1.332E+11
   2    0.075   11.775    5.850     0.441    14.488  1892.919  8.703E+10  8.904E+10
   3    0.125   17.625    5.850     0.396    12.291  1296.524  4.275E+10  5.135E+10
   4    0.175   23.475    5.850     0.357     9.799   755.208  2.719E+10  3.039E+10
   5    0.225   29.325    5.850     0.331     7.816   528.090  1.981E+10  2.218E+10
   6    0.275   35.175    5.850     0.317     6.258   460.971  1.618E+10  2.019E+10
   7    0.325   41.025    5.850     0.309     4.837   444.268  1.324E+10  1.924E+10
   8    0.375   46.875    5.850     0.303     3.688   429.431  1.054E+10  1.716E+10
   9    0.425   52.725    5.850     0.297     2.792   402.263  8.288E+09  1.412E+10
  10    0.475   58.575    5.850     0.291     2.031   366.216  6.220E+09  1.048E+10
  11    0.525   64.425    5.850     0.288     1.372   331.586  4.559E+09  7.547E+09
  12    0.575   70.275    5.850     0.288     0.806   300.508  3.342E+09  5.334E+09
  13    0.625   76.125    5.850     0.290     0.314   269.510  2.426E+09  3.565E+09
  14    0.675   81.975    5.850     0.295    -0.189   239.658  1.699E+09  2.477E+09
  15    0.725   87.825    5.850     0.302    -0.848   203.628  1.091E+09  1.909E+09
  16    0.775   93.675    5.850     0.310    -1.617   154.909  6.433E+08  1.379E+09
  17    0.825   99.525    5.850     0.318    -2.127   102.552  3.440E+08  8.148E+08
  18    0.875  105.375    5.850     0.329    -2.161    62.925  1.723E+08  4.301E+08
  19    0.925  111.225    5.850     0.342    -1.984    39.021  6.924E+07  2.288E+08
  20    0.975  117.075    5.850     0.358    -1.568    21.333  1.564E+07  8.894E+07


Interpolated blade 2 properties:

Node  BlFract   RNodes  DRNodes PitchAxis  StrcTwst  BMassDen    FlpStff    EdgStff
 (-)      (-)      (m)      (m)       (-)     (deg)    (kg/m)     (Nm^2)     (Nm^2)
   1    0.025    5.925    5.850     0.486    15.550  2759.818  1.357E+11  1.332E+11
   2    0.075   11.775    5.850     0.441    14.488  1892.919  8.703E+10  8.904E+10
   3    0.125   17.625    5.850     0.396    12.291  1296.524  4.275E+10  5.135E+10
   4    0.175   23.475    5.850     0.357     9.799   755.208  2.719E+10  3.039E+10
   5    0.225   29.325    5.850     0.331     7.816   528.090  1.981E+10  2.218E+10
   6    0.275   35.175    5.850     0.317     6.258   460.971  1.618E+10  2.019E+10
   7    0.325   41.025    5.850     0.309     4.837   444.268  1.324E+10  1.924E+10
   8    0.375   46.875    5.850     0.303     3.688   429.431  1.054E+10  1.716E+10
   9    0.425   52.725    5.850     0.297     2.792   402.263  8.288E+09  1.412E+10
  10    0.475   58.575    5.850     0.291     2.031   366.216  6.220E+09  1.048E+10
  11    0.525   64.425    5.850     0.288     1.372   331.586  4.559E+09  7.547E+09
  12    0.575   70.275    5.850     0.288     0.806   300.508  3.342E+09  5.334E+09
  13    0.625   76.125    5.850     0.290     0.314   269.510  2.426E+09  3.565E+09
  14    0.675   81.975    5.850     0.295    -0.189   239.658  1.699E+09  2.477E+09
  15    0.725   87.825    5.850     0.302    -0.848   203.628  1.091E+09  1.909E+09
  16    0.775   93.675    5.850     0.310    -1.617   154.909  6.433E+08  1.379E+09
  17    0.825   99.525    5.850     0.318    -2.127   102.552  3.440E+08  8.148E+08
  18    0.875  105.375    5.850     0.329    -2.161    62.925  1.723E+08  4.301E+08
  19    0.925  111.225    5.850     0.342    -1.984    39.021  6.924E+07  2.288E+08
  20    0.975  117.075    5.850     0.358    -1.568    21.333  1.564E+07  8.894E+07


Interpolated blade 3 properties:

Node  BlFract   RNodes  DRNodes PitchAxis  StrcTwst  BMassDen    FlpStff    EdgStff
 (-)      (-)      (m)      (m)       (-)     (deg)    (kg/m)     (Nm^2)     (Nm^2)
   1    0.025    5.925    5.850     0.486    15.550  2759.818  1.357E+11  1.332E+11
   2    0.075   11.775    5.850     0.441    14.488  1892.919  8.703E+10  8.904E+10
   3    0.125   17.625    5.850     0.396    12.291  1296.524  4.275E+10  5.135E+10
   4    0.175   23.475    5.850     0.357     9.799   755.208  2.719E+10  3.039E+10
   5    0.225   29.325    5.850     0.331     7.816   528.090  1.981E+10  2.218E+10
   6    0.275   35.175    5.850     0.317     6.258   460.971  1.618E+10  2.019E+10
   7    0.325   41.025    5.850     0.309     4.837   444.268  1.324E+10  1.924E+10
   8    0.375   46.875    5.850     0.303     3.688   429.431  1.054E+10  1.716E+10
   9    0.425   52.725    5.850     0.297     2.792   402.263  8.288E+09  1.412E+10
  10    0.475   58.575    5.850     0.291     2.031   366.216  6.220E+09  1.048E+10
  11    0.525   64.425    5.850     0.288     1.372   331.586  4.559E+09  7.547E+09
  12    0.575   70.275    5.850     0.288     0.806   300.508  3.342E+09  5.334E+09
  13    0.625   76.125    5.850     0.290     0.314   269.510  2.426E+09  3.565E+09
  14    0.675   81.975    5.850     0.295    -0.189   239.658  1.699E+09  2.477E+09
  15    0.725   87.825    5.850     0.302    -0.848   203.628  1.091E+09  1.909E+09
  16    0.775   93.675    5.850     0.310    -1.617   154.909  6.433E+08  1.379E+09
  17    0.825   99.525    5.850     0.318    -2.127   102.552  3.440E+08  8.148E+08
  18    0.875  105.375    5.850     0.329    -2.161    62.925  1.723E+08  4.301E+08
  19    0.925  111.225    5.850     0.342    -1.984    39.021  6.924E+07  2.288E+08
  20    0.975  117.075    5.850     0.358    -1.568    21.333  1.564E+07  8.894E+07


Requested Outputs:


 Col   Parameter            Units               
 ---   ---------------      ---------------     
   0   Time                 (s)                 
   1   Azimuth              (deg)               
   2   BldPitch1            (deg)               
   3   BldPitch2            (deg)               
   4   BldPitch3            (deg)               
   5   GenSpeed             (rpm)               
   6   IPDefl1              (m)                 
   7   LSSGagMya            (kN-m)              
   8   LSSGagMza            (kN-m)              
   9   LSSTipMya            (kN-m)              
  10   LSSTipMys            (kN-m)              
  11   LSSTipMza            (kN-m)              
  12   LSSTipMzs            (kN-m)              
  13   LSShftFys            (kN)                
  14   LSShftFzs            (kN)                
  15   NacYaw               (deg)               
  16   NcIMURAxs            (deg/s^2)           
  17   NcIMURAys            (deg/s^2)           
  18   NcIMURAzs            (deg/s^2)           
  19   NcIMUTAxs            (m/s^2)             
  20   NcIMUTAys            (m/s^2)             
  21   NcIMUTAzs            (m/s^2)             
  22   OoPDefl1             (m)                 
  23   PtfmHeave            (m)                 
  24   PtfmPitch            (deg)               
  25   PtfmRoll             (deg)               
  26   PtfmSurge            (m)                 
  27   PtfmSway             (m)                 
  28   PtfmYaw              (deg)               
  29   RootFxb1             (kN)                
  30   RootFxb2             (kN)                
  31   RootFxb3             (kN)                
  32   RootFyb1             (kN)                
  33   RootFyb2             (kN)                
  34   RootFyb3             (kN)                
  35   RootFzb1             (kN)                
  36   RootFzb2             (kN)                
  37   RootFzb3             (kN)                
  38   RootMxb1             (kN-m)              
  39   RootMxb2             (kN-m)              
  40   RootMxb3             (kN-m)              
  41   RootMxc1             (kN-m)              
  42   RootMxc2             (kN-m)              
  43   RootMxc3             (kN-m)              
  44   RootMyb1             (kN-m)              
  45   RootMyb2             (kN-m)              
  46   RootMyb3             (kN-m)              
  47   RootMyc1             (kN-m)              
  48   RootMyc2             (kN-m)              
  49   RootMyc3             (kN-m)              
  50   RootMzb1             (kN-m)              
  51   RootMzb2             (kN-m)              
  52   RootMzb3             (kN-m)              
  53   RootMzc1             (kN-m)              
  54   RootMzc2             (kN-m)              
  55   RootMzc3             (kN-m)              
  56   RotSpeed             (rpm)               
  57   RotThrust            (kN)                
  58   RotTorq              (kN-m)              
  59   Spn2MLxb1            (kN-m)              
  60   Spn2MLyb1            (kN-m)              
  61   TTDspFA              (m)                 
  62   TTDspSS              (m)                 
  63   TTDspTwst            (deg)               
  64   TipDxb1              (m)                 
  65   TipDxb2              (m)                 
  66   TipDxb3              (m)                 
  67   TipDxc1              (m)                 
  68   TipDxc2              (m)                 
  69   TipDxc3              (m)                 
  70   TipDyb1              (m)                 
  71   TipDyb2              (m)                 
  72   TipDyb3              (m)                 
  73   TipDyc1              (m)                 
  74   TipDyc2              (m)                 
  75   TipDyc3              (m)                 
  76   TipDzc1              (m)                 
  77   TipDzc2              (m)                 
  78   TipDzc3              (m)                 
  79   TwHt1TPxi            (m)                 
  80   TwHt1TPyi            (m)                 
  81   TwrBsFxt             (kN)                
  82   TwrBsFyt             (kN)                
  83   TwrBsFzt             (kN)                
  84   TwrBsMxt             (kN-m)              
  85   TwrBsMyt             (kN-m)              
  86   TwrBsMzt             (kN-m)              
  87   TwstDefl1            (deg)               
  88   YawBrFxp             (kN)                
  89   YawBrFyp             (kN)                
  90   YawBrFzp             (kN)                
  91   YawBrMxp             (kN-m)              
  92   YawBrMyp             (kN-m)              
  93   YawBrMzp             (kN-m)              
  94   YawBrTDxt            (m)                 
  95   YawBrTDyt            (m)                 


  Requested Output Channels at each blade station:
 Col   Parameter            Units               
 ---   ---------------      ---------------     
