
This summary file was generated by HydroDyn  on 11-Apr-2024 at 09:47:51.

WAMIT Model - Body    1
------------------
  Displaced volume (m^3)                 :     2.020635E+04
  X-offset of the center of buoyancy (m) :     0.000000E+00
  Y-offset of the center of buoyancy (m) :     0.000000E+00


  Buoyancy loads from members modelled with WAMIT, summed about ( 0.0, 0.0, 0.0 )
                                BuoyFxi               BuoyFyi               BuoyFzi               BuoyMxi               BuoyMyi               BuoyMzi 
                                  (N)                   (N)                   (N)                  (N-m)                 (N-m)                 (N-m)  
  External:                 0.000000E+00          0.000000E+00          2.031105E+08          0.000000E+00         -0.000000E+00          0.000000E+00



Strip-Theory Volume Calculations(m^3)
-------------------------------------
  Structure Volume     :    0.00000E+00
  Submerged Volume     :    0.00000E+00
  Marine Growth Volume :    0.00000E+00
  Ballasted Volume     :    0.00000E+00
              NOTE: Structure, Submerged and Marine Growth volumes are based on members not modelled with WAMIT
                      Ballasted volume is computed from all members which are marked as filled in the HydroDyn input file, regardless of PropPot flag



Total Buoyancy loads summed about ( 0.0, 0.0, 0.0 )
---------------------------------------------------
                                BuoyFxi               BuoyFyi               BuoyFzi               BuoyMxi               BuoyMyi               BuoyMzi 
                                  (N)                   (N)                   (N)                  (N-m)                 (N-m)                 (N-m)  
 External:                  0.000000E+00          0.000000E+00          0.000000E+00          0.000000E+00          0.000000E+00          0.000000E+00
 Internal:                  0.000000E+00          0.000000E+00          0.000000E+00          0.000000E+00          0.000000E+00          0.000000E+00
 Total   :                  0.000000E+00          0.000000E+00          0.000000E+00          0.000000E+00          0.000000E+00          0.000000E+00
              NOTE: External buoyancy is based on members not modelled with WAMIT
                      Internal buoyancy is computed from all members which are marked as filled in the HydroDyn input file, regardless of PropPot flag
                    Total buoyancy does not include WAMIT-modelled buoyancy contribution



Weight loads about ( 0.0, 0.0, 0.0 )
------------------------------------
                                 MGFxi                 MGFyi                 MGFzi                 MGMxi                 MGMyi                 MGMzi  
                                  (N)                   (N)                   (N)                  (N-m)                 (N-m)                 (N-m)  
 Marine Growth:             0.000000E+00          0.000000E+00          0.000000E+00          0.000000E+00          0.000000E+00          0.000000E+00



Nodes (first [   2 ] are joints, remainder are internal nodes)


   i      MbrIndx      Nxi         Nyi         Nzi           R          t          tMG        MGDens     PropPot    FilledFlag  FilledMass      Cd          Ca          Cp         AxCd        AxCa        AxCp        JAxCd       JAxCa       JAxCp  
  (-)       (-)        (m)         (m)         (m)          (m)        (m)         (m)       (kg/m^3)      (-)         (-)        (kg)          (-)         (-)         (-)         (-)         (-)         (-)         (-)         (-)         (-)   
     1      -           0.0000      0.0000    -13.1800      -           -        0.000E+00   0.000E+00      -           -           -           -           -           -           -           -           -        0.000E+00   0.000E+00   0.000E+00
     2      -           0.0000      0.0000    -14.1800      -           -        0.000E+00   0.000E+00      -           -           -           -           -           -           -           -           -        0.000E+00   0.000E+00   0.000E+00



 Members


 MemberID  joint1  joint2      Length       NElem         Volume       MGVolume          R1           t1             R2           t2          PropPot      FilledFlag   FillDensity    FillFSLoc     FillMass         Cd1            Ca1          Cp1          AxCd1         AxCa1         AxCp1        JAxCd1        JAxCa1       JAxCp1           Cd2           Ca2           Cp2          AxCd2         AxCa2         AxCp2        JAxCd2        JAxCa2        JAxCp2   
   (-)      (-)     (-)         (m)          (-)          (m^3)         (m^3)            (m)          (m)            (m)          (m)           (-)           (-)        (kg/m^3)         (-)          (kg)           (-)            (-)          (-)           (-)           (-)           (-)           (-)           (-)          (-)            (-)           (-)           (-)           (-)           (-)           (-)           (-)           (-)           (-)    
        1       2       1   1.00000E+00             1   0.00000E+00   0.00000E+00   5.00000E-06   1.00000E-06   5.00000E-06   1.00000E-06             T             F   0.00000E+00   0.00000E+00   0.00000E+00   1.00000E+00   1.00000E+00   1.00000E+00   1.00000E+00   0.00000E+00   1.00000E+00   0.00000E+00   0.00000E+00   0.00000E+00   1.00000E+00   1.00000E+00   1.00000E+00   1.00000E+00   0.00000E+00   1.00000E+00   0.00000E+00   0.00000E+00   0.00000E+00



Requested Member Outputs


   Label         Xi          Yi          Zi       MemberID    StartXi     StartYi     StartZi      EndXi       EndYi       EndZi        Loc    
    (-)          (m)         (m)         (m)        (-)         (m)         (m)         (m)         (m)         (m)         (m)         (-)    



 Requested Joint Outputs


   Label         Xi          Yi          Zi      InpJointID
    (-)          (m)         (m)         (m)        (-)    



Radiation memory effect kernel



      n           t                   K11               K12               K13               K14               K15               K16               K21               K22               K23               K24               K25               K26               K31               K32               K33               K34               K35               K36               K41               K42               K43               K44               K45               K46               K51               K52               K53               K54               K55               K56               K61               K62               K63               K64               K65               K66
     (-)         (s)            (kg/s^2)          (kg/s^2)          (kg/s^2)         (kgm/s^2)         (kgm/s^2)         (kgm/s^2)          (kg/s^2)          (kg/s^2)          (kg/s^2)         (kgm/s^2)         (kgm/s^2)         (kgm/s^2)          (kg/s^2)          (kg/s^2)          (kg/s^2)         (kgm/s^2)         (kgm/s^2)         (kgm/s^2)         (kgm/s^2)         (kgm/s^2)         (kgm/s^2)        (kgm^2/s^2)       (kgm^2/s^2)       (kgm^2/s^2)        (kgm/s^2)         (kgm/s^2)         (kgm/s^2)        (kgm^2/s^2)       (kgm^2/s^2)       (kgm^2/s^2)        (kgm/s^2)         (kgm/s^2)         (kgm/s^2)        (kgm^2/s^2)       (kgm^2/s^2)       (kgm^2/s^2)
          0   0.00000E+00       4.37394E+06       1.31384E+01      -5.92474E+01      -2.25506E+01      -1.61388E+07      -4.86830E+02      -1.41091E+00       4.37424E+06      -2.32917E+00       1.61408E+07       3.26379E+01       8.80876E+03      -2.88042E-01      -2.04741E-01       1.27923E+06       4.84185E+01       9.08379E+02      -1.82909E+01       7.62199E+00       1.62151E+07       5.14550E+00       5.78793E+08       9.29808E+02       8.06750E+04      -1.62142E+07      -3.64430E+02       1.28353E+03      -4.99211E+03       5.78770E+08       3.28410E+02      -8.84888E+01       6.55859E+03       2.16352E+01       1.36957E+05       3.15558E+03       9.44990E+09
          1   0.10000E-01       4.37318E+06       1.31275E+01      -5.91829E+01      -2.25331E+01      -1.61371E+07      -4.86433E+02      -1.40928E+00       4.37348E+06      -2.32690E+00       1.61391E+07       3.26093E+01       8.79966E+03      -2.74863E-01      -2.04458E-01       1.27917E+06       4.83465E+01       9.08580E+02      -1.82739E+01       7.62035E+00       1.62133E+07       5.12591E+00       5.78765E+08       9.28828E+02       8.05995E+04      -1.62125E+07      -3.64123E+02       1.28348E+03      -4.98800E+03       5.78742E+08       3.28319E+02      -8.84085E+01       6.55144E+03       2.16199E+01       1.36826E+05       3.15270E+03       9.44829E+09
          2   0.20000E-01       4.37091E+06       1.30949E+01      -5.89896E+01      -2.24809E+01      -1.61322E+07      -4.85243E+02      -1.40439E+00       4.37121E+06      -2.32009E+00       1.61342E+07       3.25235E+01       8.77238E+03      -2.35343E-01      -2.03611E-01       1.27898E+06       4.81306E+01       9.09180E+02      -1.82230E+01       7.61543E+00       1.62082E+07       5.06716E+00       5.78680E+08       9.25890E+02       8.03732E+04      -1.62074E+07      -3.63200E+02       1.28332E+03      -4.97570E+03       5.78656E+08       3.28047E+02      -8.81679E+01       6.53002E+03       2.15741E+01       1.36433E+05       3.14406E+03       9.44344E+09
          3   0.30000E-01       4.36712E+06       1.30407E+01      -5.86677E+01      -2.23939E+01      -1.61240E+07      -4.83263E+02      -1.39626E+00       4.36742E+06      -2.30874E+00       1.61260E+07       3.23807E+01       8.72696E+03      -1.69574E-01      -2.02204E-01       1.27868E+06       4.77714E+01       9.10180E+02      -1.81382E+01       7.60723E+00       1.61996E+07       4.96937E+00       5.78537E+08       9.21000E+02       7.99965E+04      -1.61988E+07      -3.61664E+02       1.28306E+03      -4.95521E+03       5.78514E+08       3.27593E+02      -8.77672E+01       6.49437E+03       2.14977E+01       1.35779E+05       3.12969E+03       9.43537E+09
          4   0.40000E-01       4.36183E+06       1.29648E+01      -5.82180E+01      -2.22722E+01      -1.61126E+07      -4.80494E+02      -1.38489E+00       4.36212E+06      -2.29290E+00       1.61146E+07       3.21812E+01       8.66350E+03      -7.76771E-02      -2.00241E-01       1.27825E+06       4.72695E+01       9.11576E+02      -1.80197E+01       7.59575E+00       1.61876E+07       4.83269E+00       5.78338E+08       9.14166E+02       7.94700E+04      -1.61868E+07      -3.59517E+02       1.28269E+03      -4.92658E+03       5.78315E+08       3.26958E+02      -8.72075E+01       6.44455E+03       2.13911E+01       1.34865E+05       3.10960E+03       9.42408E+09
          5   0.50000E-01       4.35502E+06       1.28675E+01      -5.76413E+01      -2.21160E+01      -1.60979E+07      -4.76943E+02      -1.37031E+00       4.35532E+06      -2.27257E+00       1.60999E+07       3.19252E+01       8.58211E+03       4.01502E-02      -1.97733E-01       1.27770E+06       4.66260E+01       9.13366E+02      -1.78677E+01       7.58101E+00       1.61721E+07       4.65736E+00       5.78082E+08       9.05399E+02       7.87949E+04      -1.61713E+07      -3.56763E+02       1.28222E+03      -4.88986E+03       5.78059E+08       3.26140E+02      -8.64895E+01       6.38066E+03       2.12543E+01       1.33692E+05       3.08385E+03       9.40957E+09
          6   0.60000E-01       4.34672E+06       1.27489E+01      -5.69387E+01      -2.19255E+01      -1.60800E+07      -4.72613E+02      -1.35255E+00       4.34701E+06      -2.24781E+00       1.60819E+07       3.16132E+01       8.48295E+03       1.83681E-01      -1.94688E-01       1.27703E+06       4.58424E+01       9.15546E+02      -1.76824E+01       7.56302E+00       1.61533E+07       4.44366E+00       5.77770E+08       8.94716E+02       7.79723E+04      -1.61525E+07      -3.53407E+02       1.28164E+03      -4.84510E+03       5.77746E+08       3.25140E+02      -8.56149E+01       6.30282E+03       2.10876E+01       1.32264E+05       3.05248E+03       9.39187E+09
          7   0.70000E-01       4.33692E+06       1.26092E+01      -5.61115E+01      -2.17009E+01      -1.60588E+07      -4.67513E+02      -1.33166E+00       4.33721E+06      -2.21866E+00       1.60607E+07       3.12458E+01       8.36620E+03       3.52609E-01      -1.91120E-01       1.27624E+06       4.49202E+01       9.18111E+02      -1.74641E+01       7.54179E+00       1.61310E+07       4.19197E+00       5.77401E+08       8.82135E+02       7.70037E+04      -1.61302E+07      -3.49454E+02       1.28096E+03      -4.79238E+03       5.77377E+08       3.23957E+02      -8.45851E+01       6.21118E+03       2.08913E+01       1.30582E+05       3.01555E+03       9.37098E+09
          8   0.80000E-01       4.32564E+06       1.24486E+01      -5.51613E+01      -2.14426E+01      -1.60344E+07      -4.61651E+02      -1.30766E+00       4.32593E+06      -2.18518E+00       1.60363E+07       3.08237E+01       8.23209E+03       5.46605E-01      -1.87044E-01       1.27533E+06       4.38615E+01       9.21056E+02      -1.72132E+01       7.51732E+00       1.61054E+07       3.90268E+00       5.76975E+08       8.67679E+02       7.58911E+04      -1.61046E+07      -3.44912E+02       1.28017E+03      -4.73180E+03       5.76951E+08       3.22591E+02      -8.34022E+01       6.10592E+03       2.06658E+01       1.28650E+05       2.97315E+03       9.34692E+09
          9   0.90000E-01       4.31288E+06       1.22673E+01      -5.40899E+01      -2.11508E+01      -1.60068E+07      -4.55036E+02      -1.28062E+00       4.31316E+06      -2.14743E+00       1.60086E+07       3.03475E+01       8.08087E+03       7.65267E-01      -1.82477E-01       1.27429E+06       4.26685E+01       9.24373E+02      -1.69300E+01       7.48965E+00       1.60763E+07       3.57632E+00       5.76493E+08       8.51371E+02       7.46365E+04      -1.60756E+07      -3.39788E+02       1.27929E+03      -4.66346E+03       5.76469E+08       3.21042E+02      -8.20684E+01       5.98724E+03       2.04115E+01       1.26472E+05       2.92535E+03       9.31970E+09
         10   0.10000E+00       4.29865E+06       1.20658E+01      -5.28995E+01      -2.08259E+01      -1.59760E+07      -4.47679E+02      -1.25058E+00       4.29893E+06      -2.10548E+00       1.59778E+07       2.98181E+01       7.91282E+03       1.00816E+00      -1.77438E-01       1.27314E+06       4.13437E+01       9.28057E+02      -1.66151E+01       7.45879E+00       1.60439E+07       3.21341E+00       5.75954E+08       8.33242E+02       7.32422E+04      -1.60432E+07      -3.34090E+02       1.27830E+03      -4.58747E+03       5.75930E+08       3.19308E+02      -8.05861E+01       5.85537E+03       2.01288E+01       1.24051E+05       2.87226E+03       9.28936E+09
         11   0.11000E+00       4.28297E+06       1.18443E+01      -5.15921E+01      -2.04683E+01      -1.59420E+07      -4.39591E+02      -1.21761E+00       4.28324E+06      -2.05942E+00       1.59437E+07       2.92365E+01       7.72826E+03       1.27477E+00      -1.71949E-01       1.27187E+06       3.98901E+01       9.32097E+02      -1.62689E+01       7.42476E+00       1.60082E+07       2.81457E+00       5.75359E+08       8.13323E+02       7.17108E+04      -1.60075E+07      -3.27830E+02       1.27720E+03      -4.50397E+03       5.75335E+08       3.17389E+02      -7.89583E+01       5.71055E+03       1.98183E+01       1.21392E+05       2.81398E+03       9.25591E+09
         12   0.12000E+00       4.26584E+06       1.16031E+01      -5.01704E+01      -2.00786E+01      -1.59048E+07      -4.30786E+02      -1.18177E+00       4.26611E+06      -2.00934E+00       1.59065E+07       2.86036E+01       7.52754E+03       1.56459E+00      -1.66033E-01       1.27047E+06       3.83106E+01       9.36487E+02      -1.58920E+01       7.38759E+00       1.59692E+07       2.38046E+00       5.74708E+08       7.91648E+02       7.00452E+04      -1.59685E+07      -3.21017E+02       1.27601E+03      -4.41310E+03       5.74684E+08       3.15285E+02      -7.71881E+01       5.55307E+03       1.94805E+01       1.18501E+05       2.75063E+03       9.21938E+09
         13   0.13000E+00       4.24728E+06       1.13427E+01      -4.86371E+01      -1.96570E+01      -1.58645E+07      -4.21278E+02      -1.14315E+00       4.24754E+06      -1.95532E+00       1.58661E+07       2.79206E+01       7.31104E+03       1.87700E+00      -1.59716E-01       1.26896E+06       3.66088E+01       9.41215E+02      -1.54850E+01       7.34730E+00       1.59268E+07       1.91184E+00       5.74001E+08       7.68257E+02       6.82486E+04      -1.59262E+07      -3.13663E+02       1.27471E+03      -4.31501E+03       5.73978E+08       3.12994E+02      -7.52786E+01       5.38323E+03       1.91161E+01       1.15382E+05       2.68234E+03       9.17979E+09
         14   0.14000E+00       4.22730E+06       1.10634E+01      -4.69951E+01      -1.92044E+01      -1.58211E+07      -4.11082E+02      -1.10181E+00       4.22756E+06      -1.89747E+00       1.58226E+07       2.71888E+01       7.07916E+03       2.21138E+00      -1.53025E-01       1.26733E+06       3.47881E+01       9.46273E+02      -1.50486E+01       7.30392E+00       1.58812E+07       1.40947E+00       5.73239E+08       7.43189E+02       6.63243E+04      -1.58806E+07      -3.05781E+02       1.27332E+03      -4.20988E+03       5.73215E+08       3.10517E+02      -7.32337E+01       5.20135E+03       1.87257E+01       1.12041E+05       2.60924E+03       9.13718E+09
         15   0.15000E+00       4.20593E+06       1.07658E+01      -4.52475E+01      -1.87211E+01      -1.57745E+07      -4.00215E+02      -1.05785E+00       4.20618E+06      -1.83592E+00       1.57760E+07       2.64092E+01       6.83236E+03       2.56704E+00      -1.45988E-01       1.26559E+06       3.28525E+01       9.51647E+02      -1.45834E+01       7.25749E+00       1.58324E+07       8.74221E-01       5.72421E+08       7.16490E+02       6.42758E+04      -1.58318E+07      -2.97385E+02       1.27182E+03      -4.09788E+03       5.72397E+08       3.07853E+02      -7.10571E+01       5.00778E+03       1.83100E+01       1.08485E+05       2.53149E+03       9.09158E+09
         16   0.16000E+00       4.18317E+06       1.04504E+01      -4.33977E+01      -1.82079E+01      -1.57249E+07      -3.88694E+02      -1.01135E+00       4.18342E+06      -1.77076E+00       1.57263E+07       2.55835E+01       6.57108E+03       2.94327E+00      -1.38638E-01       1.26372E+06       3.08061E+01       9.57328E+02      -1.40903E+01       7.20804E+00       1.57803E+07       3.06972E-01       5.71547E+08       6.88205E+02       6.21071E+04      -1.57798E+07      -2.88489E+02       1.27023E+03      -3.97921E+03       5.71523E+08       3.05000E+02      -6.87530E+01       4.80290E+03       1.78698E+01       1.04720E+05       2.44924E+03       9.04302E+09
         17   0.17000E+00       4.15905E+06       1.01176E+01      -4.14493E+01      -1.76653E+01      -1.56722E+07      -3.76538E+02      -9.62411E-01       4.15929E+06      -1.70214E+00       1.56735E+07       2.47129E+01       6.29583E+03       3.33929E+00      -1.31005E-01       1.26174E+06       2.86533E+01       9.63301E+02      -1.35699E+01       7.15560E+00       1.57250E+07      -2.91303E-01       5.70618E+08       6.58385E+02       5.98222E+04      -1.57245E+07      -2.79109E+02       1.26854E+03      -3.85406E+03       5.70594E+08       3.01960E+02      -6.63257E+01       4.58709E+03       1.74059E+01       1.00754E+05       2.36266E+03       8.99154E+09
         18   0.18000E+00       4.13358E+06       9.76791E+00      -3.94058E+01      -1.70941E+01      -1.56164E+07      -3.63766E+02      -9.11133E-01       4.13381E+06      -1.63017E+00       1.56177E+07       2.37990E+01       6.00712E+03       3.75431E+00      -1.23125E-01       1.25965E+06       2.63987E+01       9.69554E+02      -1.30232E+01       7.10022E+00       1.56666E+07      -9.19608E-01       5.69635E+08       6.27082E+02       5.74253E+04      -1.56662E+07      -2.69259E+02       1.26676E+03      -3.72266E+03       5.69610E+08       2.98729E+02      -6.37798E+01       4.36078E+03       1.69192E+01       9.65930E+04       2.27192E+03       8.93718E+09
         19   0.19000E+00       4.10678E+06       9.40203E+00      -3.72713E+01      -1.64951E+01      -1.55577E+07      -3.50400E+02      -8.57622E-01       4.10701E+06      -1.55500E+00       1.55589E+07       2.28435E+01       5.70551E+03       4.18746E+00      -1.15032E-01       1.25743E+06       2.40472E+01       9.76073E+02      -1.24510E+01       7.04194E+00       1.56050E+07      -1.57687E+00       5.68596E+08       5.94350E+02       5.49211E+04      -1.56047E+07      -2.58959E+02       1.26488E+03      -3.58523E+03       5.68572E+08       2.95310E+02      -6.11202E+01       4.12439E+03       1.64105E+01       9.22464E+04       2.17720E+03       8.87998E+09
         20   0.20000E+00       4.07867E+06       9.02049E+00      -3.50498E+01      -1.58690E+01      -1.54960E+07      -3.36460E+02      -8.01986E-01       4.07889E+06      -1.47678E+00       1.54971E+07       2.18480E+01       5.39155E+03       4.63789E+00      -1.06763E-01       1.25511E+06       2.16036E+01       9.82843E+02      -1.18543E+01       6.98079E+00       1.55404E+07      -2.26199E+00       5.67504E+08       5.60247E+02       5.23140E+04      -1.55401E+07      -2.48224E+02       1.26290E+03      -3.44201E+03       5.67478E+08       2.91699E+02      -5.83519E+01       3.87837E+03       1.58808E+01       8.77214E+04       2.07870E+03       8.81999E+09
         21   0.21000E+00       4.04928E+06       8.62392E+00      -3.27456E+01      -1.52167E+01      -1.54313E+07      -3.21969E+02      -7.44341E-01       4.04950E+06      -1.39564E+00       1.54324E+07       2.08143E+01       5.06585E+03       5.10465E+00      -9.83556E-02       1.25267E+06       1.90734E+01       9.89849E+02      -1.12340E+01       6.91684E+00       1.54727E+07      -2.97380E+00       5.66356E+08       5.24834E+02       4.96091E+04      -1.54724E+07      -2.37074E+02       1.26083E+03      -3.29323E+03       5.66331E+08       2.87899E+02      -5.54802E+01       3.62321E+03       1.53310E+01       8.30270E+04       1.97663E+03       8.75724E+09
         22   0.22000E+00       4.01863E+06       8.21298E+00      -3.03631E+01      -1.45390E+01      -1.53638E+07      -3.06951E+02      -6.84805E-01       4.01883E+06      -1.31176E+00       1.53647E+07       1.97441E+01       4.72901E+03       5.58680E+00      -8.98498E-02       1.25012E+06       1.64617E+01       9.97075E+02      -1.05911E+01       6.85013E+00       1.54020E+07      -3.71111E+00       5.65155E+08       4.88172E+02       4.68113E+04      -1.54018E+07      -2.25528E+02       1.25867E+03      -3.13917E+03       5.65130E+08       2.83908E+02      -5.25104E+01       3.35938E+03       1.47622E+01       7.81716E+04       1.87117E+03       8.69179E+09
         23   0.23000E+00       3.98674E+06       7.78833E+00      -2.79069E+01      -1.38368E+01      -1.52933E+07      -2.91430E+02      -6.23502E-01       3.98693E+06      -1.22529E+00       1.52942E+07       1.86394E+01       4.38169E+03       6.08336E+00      -8.12834E-02       1.24746E+06       1.37744E+01       1.00450E+03      -9.92666E+00       6.78071E+00       1.53283E+07      -4.47266E+00       5.63900E+08       4.50326E+02       4.39260E+04      -1.53281E+07      -2.13606E+02       1.25642E+03      -2.98007E+03       5.63875E+08       2.79726E+02      -4.94482E+01       3.08741E+03       1.41753E+01       7.31647E+04       1.76255E+03       8.62368E+09
         24   0.24000E+00       3.95363E+06       7.35066E+00      -2.53815E+01      -1.31110E+01      -1.52201E+07      -2.75430E+02      -5.60555E-01       3.95382E+06      -1.13639E+00       1.52208E+07       1.75020E+01       4.02452E+03       6.59332E+00      -7.26994E-02       1.24469E+06       1.10169E+01       1.01212E+03      -9.24178E+00       6.70864E+00       1.52517E+07      -5.25717E+00       5.62592E+08       4.11362E+02       4.09584E+04      -1.52516E+07      -2.01328E+02       1.25408E+03      -2.81621E+03       5.62566E+08       2.75352E+02      -4.62995E+01       2.80779E+03       1.35716E+01       6.80154E+04       1.65099E+03       8.55297E+09
         25   0.25000E+00       3.91933E+06       6.90069E+00      -2.27920E+01      -1.23627E+01      -1.51440E+07      -2.58979E+02      -4.96097E-01       3.91951E+06      -1.04524E+00       1.51447E+07       1.63341E+01       3.65819E+03       7.11561E+00      -6.41372E-02       1.24181E+06       8.19546E+00       1.01991E+03      -8.53755E+00       6.63399E+00       1.51722E+07      -6.06331E+00       5.61231E+08       3.71348E+02       3.79143E+04      -1.51721E+07      -1.88716E+02       1.25165E+03      -2.64789E+03       5.61205E+08       2.70789E+02      -4.30701E+01       2.52109E+03       1.29520E+01       6.27336E+04       1.53670E+03       8.47970E+09
         26   0.26000E+00       3.88387E+06       6.43916E+00      -2.01432E+01      -1.15928E+01      -1.50651E+07      -2.42101E+02      -4.30258E-01       3.88404E+06      -9.52001E-01       1.50657E+07       1.51376E+01       3.28338E+03       7.64920E+00      -5.56409E-02       1.23881E+06       5.31583E+00       1.02785E+03      -7.81512E+00       6.55679E+00       1.50898E+07      -6.88972E+00       5.59816E+08       3.30354E+02       3.47992E+04      -1.50898E+07      -1.75791E+02       1.24913E+03      -2.47537E+03       5.59790E+08       2.66034E+02      -3.97662E+01       2.22783E+03       1.23177E+01       5.73290E+04       1.41993E+03       8.40394E+09
         27   0.27000E+00       3.84727E+06       5.96682E+00      -1.74402E+01      -1.08024E+01      -1.49835E+07      -2.24825E+02      -3.63176E-01       3.84744E+06      -8.56867E-01       1.49840E+07       1.39146E+01       2.90081E+03       8.19295E+00      -4.72505E-02       1.23572E+06       2.38436E+00       1.03592E+03      -7.07565E+00       6.47714E+00       1.50047E+07      -7.73499E+00       5.58350E+08       2.88454E+02       3.16191E+04      -1.50047E+07      -1.62576E+02       1.24653E+03      -2.29896E+03       5.58324E+08       2.61090E+02      -3.63940E+01       1.92860E+03       1.16699E+01       5.18121E+04       1.30091E+03       8.32573E+09
         28   0.28000E+00       3.80956E+06       5.48444E+00      -1.46882E+01      -9.99253E+00      -1.48992E+07      -2.07179E+02      -2.94986E-01       3.80972E+06      -7.60011E-01       1.48996E+07       1.26674E+01       2.51120E+03       8.74579E+00      -3.90113E-02       1.23251E+06      -5.92855E-01       1.04411E+03      -6.32035E+00       6.39509E+00       1.49167E+07      -8.59770E+00       5.56831E+08       2.45720E+02       2.83798E+04      -1.49168E+07      -1.49093E+02       1.24384E+03      -2.11897E+03       5.56804E+08       2.55955E+02      -3.29600E+01       1.62395E+03       1.10097E+01       4.61929E+04       1.17988E+03       8.24513E+09
         29   0.29000E+00       3.77077E+06       4.99282E+00      -1.18924E+01      -9.16439E+00      -1.48123E+07      -1.89190E+02      -2.25832E-01       3.77092E+06      -6.61623E-01       1.48126E+07       1.13979E+01       2.11528E+03       9.30654E+00      -3.09641E-02       1.22920E+06      -3.60927E+00       1.05239E+03      -5.55046E+00       6.31071E+00       1.48261E+07      -9.47637E+00       5.55260E+08       2.02227E+02       2.50874E+04      -1.48262E+07      -1.35365E+02       1.24107E+03      -1.93569E+03       5.55233E+08       2.50633E+02      -2.94706E+01       1.31449E+03       1.03384E+01       4.04822E+04       1.05707E+03       8.16221E+09
         30   0.30000E+00       3.73093E+06       4.49275E+00      -9.05823E+00      -8.31902E+00      -1.47228E+07      -1.70888E+02      -1.55853E-01       3.73106E+06      -5.61887E-01       1.47229E+07       1.01086E+01       1.71381E+03       9.87409E+00      -2.31543E-02       1.22579E+06      -6.65860E+00       1.06075E+03      -4.76721E+00       6.22407E+00       1.47328E+07      -1.03695E+01       5.53638E+08       1.58052E+02       2.17481E+04      -1.47330E+07      -1.21416E+02       1.23822E+03      -1.74945E+03       5.53611E+08       2.45123E+02      -2.59325E+01       1.00079E+03       9.65727E+00       3.46906E+04       9.32752E+02       8.07701E+09
         31   0.31000E+00       3.69006E+06       3.98506E+00      -6.19113E+00      -7.45770E+00      -1.46307E+07      -1.52303E+02      -8.51962E-02       3.69019E+06      -4.60996E-01       1.46307E+07       8.80155E+00       1.30754E+03       1.04472E+01      -1.56222E-02       1.22227E+06      -9.73415E+00       1.06917E+03      -3.97190E+00       6.13526E+00       1.46369E+07      -1.12756E+01       5.51964E+08       1.13273E+02       1.83681E+04      -1.46372E+07      -1.07271E+02       1.23528E+03      -1.56056E+03       5.51937E+08       2.39427E+02      -2.23523E+01       6.83469E+02       8.96747E+00       2.88291E+04       8.07162E+02       7.98961E+09
         32   0.32000E+00       3.64820E+06       3.47058E+00      -3.29651E+00      -6.58153E+00      -1.45360E+07      -1.33464E+02      -1.40048E-02       3.64831E+06      -3.59140E-01       1.45360E+07       7.47915E+00       8.97237E+02       1.10248E+01      -8.41351E-03       1.21865E+06      -1.28295E+01       1.07763E+03      -3.16580E+00       6.04434E+00       1.45384E+07      -1.21932E+01       5.50240E+08       6.79669E+01       1.49537E+04      -1.45388E+07      -9.29529E+01       1.23227E+03      -1.36935E+03       5.50212E+08       2.33545E+02      -1.87368E+01       3.63135E+02       8.27029E+00       2.29086E+04       6.80555E+02       7.90007E+09
         33   0.33000E+00       3.60537E+06       2.95014E+00      -3.80007E-01      -5.69185E+00      -1.44389E+07      -1.14402E+02       5.75729E-02       3.60548E+06      -2.56516E-01       1.44388E+07       6.14366E+00       4.83683E+02       1.16057E+01      -1.56779E-03       1.21493E+06      -1.59379E+01       1.08610E+03      -2.35025E+00       5.95142E+00       1.44375E+07      -1.31206E+01       5.48465E+08       2.22150E+01       1.15114E+04      -1.44378E+07      -7.84873E+01       1.22918E+03      -1.17615E+03       5.48438E+08       2.27482E+02      -1.50930E+01       4.03944E+01       7.56704E+00       1.69404E+04       5.53189E+02       7.80844E+09
         34   0.34000E+00       3.56162E+06       2.42461E+00       2.55287E+00      -4.78983E+00      -1.43394E+07      -9.51482E+01       1.29391E-01       3.56171E+06      -1.53316E-01       1.43391E+07       4.79745E+00       6.76532E+01       1.21885E+01       4.86997E-03       1.21111E+06      -1.90528E+01       1.09457E+03      -1.52657E+00       5.85656E+00       1.43340E+07      -1.40562E+01       5.46640E+08      -2.39034E+01       8.04748E+03      -1.43345E+07      -6.38985E+01       1.22600E+03      -9.81277E+02       5.46613E+08       2.21236E+02      -1.14276E+01      -2.84119E+02       6.85898E+00       1.09354E+04       4.25317E+02       7.71479E+09
         35   0.35000E+00       3.51696E+06       1.89484E+00       5.49641E+00      -3.87686E+00      -1.42374E+07      -7.57331E+01       2.01299E-01       3.51704E+06      -4.97407E-02       1.42371E+07       3.44282E+00      -3.50060E+02       1.27722E+01       1.08617E-02       1.20719E+06      -2.21673E+01       1.10302E+03      -6.96122E-01       5.75986E+00       1.42282E+07      -1.49986E+01       5.44766E+08      -7.03063E+01       4.56858E+03      -1.42287E+07      -4.92123E+01       1.22276E+03      -7.85082E+02       5.44738E+08       2.14814E+02      -7.74764E+00      -6.09794E+02       6.14745E+00       4.90527E+03       2.97201E+02       7.61920E+09
         36   0.36000E+00       3.47143E+06       1.36169E+00       8.44506E+00      -2.95414E+00      -1.41332E+07      -5.61880E+01       2.73152E-01       3.47150E+06       5.40174E-02       1.41327E+07       2.08218E+00      -7.68674E+02       1.33555E+01       1.63632E-02       1.20317E+06      -2.52751E+01       1.11142E+03       1.39757E-01       5.66140E+00       1.41200E+07      -1.59460E+01       5.42842E+08      -1.16913E+02       1.08106E+03      -1.41206E+07      -3.44532E+01       1.21943E+03      -5.87886E+02       5.42814E+08       2.08214E+02      -4.06006E+00      -9.35993E+02       5.43372E+00      -1.13902E+03       1.69093E+02       7.52172E+09
         37   0.37000E+00       3.42506E+06       8.26065E-01       1.13931E+01      -2.02314E+00      -1.40266E+07      -3.65450E+01       3.44797E-01       3.42513E+06       1.57757E-01       1.40261E+07       7.17852E-01      -1.18739E+03       1.39373E+01       2.13387E-02       1.19905E+06      -2.83691E+01       1.11976E+03       9.79665E-01       5.56130E+00       1.40095E+07      -1.68969E+01       5.40869E+08      -1.63641E+02      -2.40843E+03      -1.40102E+07      -1.96474E+01       1.21604E+03      -3.90042E+02       5.40841E+08       2.01444E+02      -3.71898E-01      -1.26210E+03       4.71916E+00      -7.18574E+03       4.12580E+01       7.42242E+09
         38   0.38000E+00       3.37789E+06       2.88814E-01       1.43349E+01      -1.08512E+00      -1.39178E+07      -1.68353E+01       4.16092E-01       3.37795E+06       2.61285E-01       1.39171E+07      -6.47752E-01      -1.60542E+03       1.45162E+01       2.57455E-02       1.19484E+06      -3.14431E+01       1.12801E+03       1.82225E+00       5.45962E+00       1.38968E+07      -1.78496E+01       5.38848E+08      -2.10409E+02      -5.89349E+03      -1.38975E+07      -4.81964E+00       1.21257E+03      -1.91876E+02       5.38820E+08       1.94503E+02       3.30994E+00      -1.58747E+03       4.00503E+00      -1.32239E+04      -8.60537E+01       7.32138E+09
         39   0.39000E+00       3.32995E+06      -2.49162E-01       1.72647E+01      -1.41538E-01      -1.38068E+07       2.90885E+00       4.86885E-01       3.33000E+06       3.64401E-01       1.38060E+07      -2.01229E+00      -2.02197E+03       1.50911E+01       2.95496E-02       1.19054E+06      -3.44901E+01       1.13616E+03       2.66611E+00       5.35650E+00       1.37819E+07      -1.88025E+01       5.36779E+08      -2.57133E+02      -9.36747E+03      -1.37827E+07       1.00037E+01       1.20902E+03       6.26108E+00       5.36751E+08       1.87398E+02       6.97840E+00      -1.91150E+03       3.29269E+00      -1.92418E+04      -2.12580E+02       7.21865E+09
         40   0.40000E+00       3.28127E+06      -7.86995E-01       2.01770E+01       8.06271E-01      -1.36937E+07       2.26559E+01       5.57033E-01       3.28131E+06       4.66914E-01       1.36928E+07      -3.37336E+00      -2.43626E+03       1.56608E+01       3.27114E-02       1.18614E+06      -3.75039E+01       1.14418E+03       3.50986E+00       5.25201E+00       1.36649E+07      -1.97540E+01       5.34662E+08      -3.03733E+02      -1.28240E+04      -1.36657E+07       2.47981E+01       1.20541E+03       2.04042E+02       5.34634E+08       1.80130E+02       1.06266E+01      -2.23354E+03       2.58342E+00      -2.52284E+04      -3.38073E+02       7.11432E+09
         41   0.41000E+00       3.23189E+06      -1.32378E+00       2.30662E+01       1.75680E+00      -1.35785E+07       4.23734E+01       6.26388E-01       3.23192E+06       5.68626E-01       1.35775E+07      -4.72864E+00      -2.84749E+03       1.62241E+01       3.51995E-02       1.18166E+06      -4.04778E+01       1.15205E+03       4.35210E+00       5.14628E+00       1.35459E+07      -2.07024E+01       5.32498E+08      -3.50125E+02      -1.62566E+04      -1.35467E+07       3.95371E+01       1.20173E+03       4.01114E+02       5.32470E+08       1.72707E+02       1.42476E+01      -2.55299E+03       1.87859E+00      -3.11723E+04      -4.62274E+02       7.00844E+09
         42   0.42000E+00       3.18184E+06      -1.85866E+00       2.59268E+01       2.70870E+00      -1.34612E+07       6.20300E+01       6.94810E-01       3.18185E+06       6.69349E-01       1.34601E+07      -6.07573E+00      -3.25490E+03       1.67798E+01       3.69766E-02       1.17708E+06      -4.34056E+01       1.15976E+03       5.19146E+00       5.03940E+00       1.34248E+07      -2.16461E+01       5.30287E+08      -3.96229E+02      -1.96588E+04      -1.34257E+07       5.41962E+01       1.19798E+03       5.97154E+02       5.30258E+08       1.65130E+02       1.78345E+01      -2.86922E+03       1.17942E+00      -3.70625E+04      -5.84940E+02       6.90110E+09
         43   0.43000E+00       3.13114E+06      -2.39074E+00       2.87531E+01       3.66041E+00      -1.33420E+07       8.15935E+01       7.62156E-01       3.13115E+06       7.68889E-01       1.33408E+07      -7.41236E+00      -3.65771E+03       1.73268E+01       3.80150E-02       1.17241E+06      -4.62808E+01       1.16728E+03       6.02651E+00       4.93150E+00       1.33018E+07      -2.25835E+01       5.28030E+08      -4.41964E+02      -2.30242E+04      -1.33028E+07       6.87493E+01       1.19416E+03       7.91813E+02       5.28001E+08       1.57408E+02       2.13806E+01      -3.18163E+03       4.87292E-01      -4.28876E+04      -7.05820E+02       6.79236E+09
         44   0.44000E+00       3.07985E+06      -2.91914E+00       3.15398E+01       4.61060E+00      -1.32208E+07       1.01033E+02       8.28287E-01       3.07985E+06       8.67062E-01       1.32195E+07      -8.73616E+00      -4.05516E+03       1.78638E+01       3.82809E-02       1.16765E+06      -4.90974E+01       1.17459E+03       6.85591E+00       4.82267E+00       1.31769E+07      -2.35129E+01       5.25727E+08      -4.87248E+02      -2.63467E+04      -1.31779E+07       8.31723E+01       1.19027E+03       9.84771E+02       5.25698E+08       1.49544E+02       2.48792E+01      -3.48961E+03      -1.96586E-01      -4.86371E+04      -8.24676E+02       6.68229E+09
         45   0.45000E+00       3.02799E+06      -3.44300E+00       3.42815E+01       5.55764E+00      -1.30977E+07       1.20316E+02       8.93065E-01       3.02798E+06       9.63680E-01       1.30963E+07      -1.00449E+01      -4.44649E+03       1.83898E+01       3.77496E-02       1.16281E+06      -5.18492E+01       1.18168E+03       7.67823E+00       4.71306E+00       1.30501E+07      -2.44328E+01       5.23378E+08      -5.32002E+02      -2.96200E+04      -1.30512E+07       9.74394E+01       1.18632E+03       1.17568E+03       5.23349E+08       1.41546E+02       2.83235E+01      -3.79258E+03      -8.70886E-01      -5.42997E+04      -9.41266E+02       6.57096E+09
         46   0.46000E+00       2.97559E+06      -3.96146E+00       3.69730E+01       6.50017E+00      -1.29728E+07       1.39411E+02       9.56358E-01       2.97557E+06       1.05857E+00       1.29713E+07      -1.13362E+01      -4.83097E+03       1.89036E+01       3.63919E-02       1.15788E+06      -5.45303E+01       1.18852E+03       8.49216E+00       4.60275E+00       1.29216E+07      -2.53415E+01       5.20985E+08      -5.76148E+02      -3.28379E+04      -1.29228E+07       1.11527E+02       1.18230E+03       1.36424E+03       5.20955E+08       1.33418E+02       3.17072E+01      -4.08993E+03      -1.53441E+00      -5.98653E+04      -1.05536E+03       6.45845E+09
         47   0.47000E+00       2.92269E+06      -4.47364E+00       3.96089E+01       7.43656E+00      -1.28462E+07       1.58289E+02       1.01803E+00       2.92266E+06       1.15154E+00       1.28445E+07      -1.26081E+01      -5.20787E+03       1.94041E+01       3.41868E-02       1.15287E+06      -5.71350E+01       1.19509E+03       9.29630E+00       4.49190E+00       1.27914E+07      -2.62376E+01       5.18546E+08      -6.19607E+02      -3.59945E+04      -1.27926E+07       1.25410E+02       1.17821E+03       1.55010E+03       5.18517E+08       1.25171E+02       3.50237E+01      -4.38110E+03      -2.18588E+00      -6.53229E+04      -1.16673E+03       6.34483E+09
         48   0.48000E+00       2.86932E+06      -4.97873E+00       4.21844E+01       8.36545E+00      -1.27178E+07       1.76918E+02       1.07796E+00       2.86929E+06       1.24242E+00       1.27161E+07      -1.38581E+01      -5.57647E+03       1.98903E+01       3.11086E-02       1.14777E+06      -5.96576E+01       1.20138E+03       1.00893E+01       4.38061E+00       1.26596E+07      -2.71193E+01       5.16064E+08      -6.62303E+02      -3.90839E+04      -1.26608E+07       1.39065E+02       1.17407E+03       1.73296E+03       5.16034E+08       1.16807E+02       3.82668E+01      -4.66553E+03      -2.82412E+00      -7.06627E+04      -1.27515E+03       6.23016E+09
         49   0.49000E+00       2.81553E+06      -5.47586E+00       4.46942E+01       9.28521E+00      -1.25877E+07       1.95268E+02       1.13602E+00       2.81548E+06       1.33105E+00       1.25859E+07      -1.50842E+01      -5.93607E+03       2.03611E+01       2.71417E-02       1.14259E+06      -6.20927E+01       1.20736E+03       1.08699E+01       4.26902E+00       1.25261E+07      -2.79853E+01       5.13538E+08      -7.04161E+02      -4.21002E+04      -1.25275E+07       1.52468E+02       1.16986E+03       1.91249E+03       5.13508E+08       1.08339E+02       4.14305E+01      -4.94266E+03      -3.44790E+00      -7.58743E+04      -1.38040E+03       6.11453E+09
         50   0.50000E+00       2.76133E+06      -5.96424E+00       4.71338E+01       1.01944E+01      -1.24560E+07       2.13310E+02       1.19209E+00       2.76128E+06       1.41726E+00       1.24541E+07      -1.62843E+01      -6.28600E+03       2.08155E+01       2.22646E-02       1.13733E+06      -6.44350E+01       1.21302E+03       1.16367E+01       4.15725E+00       1.23912E+07      -2.88339E+01       5.10968E+08      -7.45107E+02      -4.50381E+04      -1.23925E+07       1.65597E+02       1.16558E+03       2.08840E+03       5.10938E+08       9.97712E+01       4.45085E+01      -5.21195E+03      -4.05612E+00      -8.09482E+04      -1.48229E+03       5.99800E+09
         51   0.51000E+00       2.70677E+06      -6.44304E+00       4.94982E+01       1.10915E+01      -1.23228E+07       2.31014E+02       1.24606E+00       2.70671E+06       1.50088E+00       1.23208E+07      -1.74564E+01      -6.62559E+03       2.12525E+01       1.64667E-02       1.13199E+06      -6.66795E+01       1.21834E+03       1.23884E+01       4.04543E+00       1.22548E+07      -2.96638E+01       5.08356E+08      -7.85069E+02      -4.78917E+04      -1.22562E+07       1.78429E+02       1.16124E+03       2.26039E+03       5.08326E+08       9.11156E+01       4.74953E+01      -5.47290E+03      -4.64757E+00      -8.58746E+04      -1.58059E+03       5.88064E+09
         52   0.52000E+00       2.65188E+06      -6.91148E+00       5.17831E+01       1.19751E+01      -1.21881E+07       2.48351E+02       1.29780E+00       2.65181E+06       1.58177E+00       1.21860E+07      -1.85984E+01      -6.95419E+03       2.16711E+01       9.73132E-03       1.12657E+06      -6.88212E+01       1.22330E+03       1.31238E+01       3.93370E+00       1.21169E+07      -3.04733E+01       5.05701E+08      -8.23976E+02      -5.06560E+04      -1.21184E+07       1.90941E+02       1.15684E+03       2.42815E+03       5.05671E+08       8.23776E+01       5.03850E+01      -5.72498E+03      -5.22121E+00      -9.06446E+04      -1.67512E+03       5.76253E+09
         53   0.53000E+00       2.59669E+06      -7.36878E+00       5.39837E+01       1.28435E+01      -1.20519E+07       2.65294E+02       1.34722E+00       2.59661E+06       1.65977E+00       1.20497E+07      -1.97084E+01      -7.27118E+03       2.20704E+01       2.05246E-03       1.12107E+06      -7.08556E+01       1.22789E+03       1.38416E+01       3.82220E+00       1.19778E+07      -3.12612E+01       5.03005E+08      -8.61760E+02      -5.33257E+04      -1.19793E+07       2.03112E+02       1.15238E+03       2.59140E+03       5.02974E+08       7.35707E+01       5.31723E+01      -5.96771E+03      -5.77592E+00      -9.52487E+04      -1.76569E+03       5.64373E+09
         54   0.54000E+00       2.54124E+06      -7.81418E+00       5.60961E+01       1.36953E+01      -1.19143E+07       2.81815E+02       1.39421E+00       2.54115E+06       1.73474E+00       1.19120E+07      -2.07844E+01      -7.57596E+03       2.24496E+01      -6.58073E-03       1.11550E+06      -7.27782E+01       1.23209E+03       1.45406E+01       3.71104E+00       1.18373E+07      -3.20260E+01       5.00267E+08      -8.98353E+02      -5.58960E+04      -1.18389E+07       2.14922E+02       1.14786E+03       2.74988E+03       5.00236E+08       6.47009E+01       5.58518E+01      -6.20061E+03      -6.31071E+00      -9.96789E+04      -1.85213E+03       5.52432E+09
         55   0.55000E+00       2.48556E+06      -8.24694E+00       5.81159E+01       1.45290E+01      -1.17754E+07       2.97887E+02       1.43866E+00       2.48546E+06       1.80655E+00       1.17730E+07      -2.18248E+01      -7.86795E+03       2.28077E+01      -1.61691E-02       1.10985E+06      -7.45848E+01       1.23588E+03       1.52196E+01       3.60040E+00       1.16956E+07      -3.27664E+01       4.97488E+08      -9.33692E+02      -5.83618E+04      -1.16972E+07       2.26349E+02       1.14327E+03       2.90328E+03       4.97458E+08       5.57825E+01       5.84186E+01      -6.42324E+03      -6.82451E+00      -1.03926E+05      -1.93425E+03       5.40436E+09
         56   0.56000E+00       2.42968E+06      -8.66635E+00       6.00394E+01       1.53433E+01      -1.16351E+07       3.13483E+02       1.48050E+00       2.42957E+06       1.87505E+00       1.16327E+07      -2.28276E+01      -8.14660E+03       2.31439E+01      -2.67185E-02       1.10413E+06      -7.62715E+01       1.23925E+03       1.58775E+01       3.49038E+00       1.15528E+07      -3.34810E+01       4.94669E+08      -9.67713E+02      -6.07189E+04      -1.15544E+07       2.37375E+02       1.13863E+03       3.05138E+03       4.94638E+08       4.68219E+01       6.08677E+01      -6.63514E+03      -7.31642E+00      -1.07983E+05      -2.01190E+03       5.28392E+09
         57   0.57000E+00       2.37363E+06      -9.07169E+00       6.18627E+01       1.61365E+01      -1.14937E+07       3.28580E+02       1.51963E+00       2.37352E+06       1.94014E+00       1.14912E+07      -2.37913E+01      -8.41137E+03       2.34576E+01      -3.82237E-02       1.09833E+06      -7.78346E+01       1.24219E+03       1.65130E+01       3.38114E+00       1.14088E+07      -3.41686E+01       4.91810E+08      -1.00036E+03      -6.29625E+04      -1.14105E+07       2.47980E+02       1.13392E+03       3.19390E+03       4.91779E+08       3.78351E+01       6.31945E+01      -6.83593E+03      -7.78546E+00      -1.11842E+05      -2.08492E+03       5.16307E+09
         58   0.58000E+00       2.31745E+06      -9.46231E+00       6.35824E+01       1.69073E+01      -1.13511E+07       3.43152E+02       1.55597E+00       2.31733E+06       2.00168E+00       1.13485E+07      -2.47142E+01      -8.66176E+03       2.37479E+01      -5.06855E-02       1.09246E+06      -7.92706E+01       1.24467E+03       1.71252E+01       3.27282E+00       1.12639E+07      -3.48279E+01       4.88911E+08      -1.03157E+03      -6.50888E+04      -1.12656E+07       2.58147E+02       1.12915E+03       3.33060E+03       4.88880E+08       2.88288E+01       6.53945E+01      -7.02519E+03      -8.23079E+00      -1.15495E+05      -2.15318E+03       5.04188E+09
         59   0.59000E+00       2.26116E+06      -9.83754E+00       6.51948E+01       1.76542E+01      -1.12073E+07       3.57175E+02       1.58944E+00       2.26104E+06       2.05957E+00       1.12047E+07      -2.55947E+01      -8.89729E+03       2.40141E+01      -6.40926E-02       1.08652E+06      -8.05764E+01       1.24669E+03       1.77128E+01       3.16556E+00       1.11179E+07      -3.54578E+01       4.85973E+08      -1.06128E+03      -6.70936E+04      -1.11196E+07       2.67856E+02       1.12432E+03       3.46125E+03       4.85942E+08       1.98198E+01       6.74638E+01      -7.20257E+03      -8.65152E+00      -1.18936E+05      -2.21653E+03       4.92042E+09
         60   0.60000E+00       2.20480E+06      -1.01968E+01       6.66972E+01       1.83759E+01      -1.10625E+07       3.70627E+02       1.61997E+00       2.20467E+06       2.11370E+00       1.10598E+07      -2.64314E+01      -9.11752E+03       2.42557E+01      -7.84406E-02       1.08051E+06      -8.17491E+01       1.24824E+03       1.82750E+01       3.05950E+00       1.09710E+07      -3.60570E+01       4.82997E+08      -1.08946E+03      -6.89734E+04      -1.09727E+07       2.77093E+02       1.11942E+03       3.58564E+03       4.82966E+08       1.08156E+01       6.93983E+01      -7.36769E+03      -9.04690E+00      -1.22159E+05      -2.27486E+03       4.79874E+09
         61   0.61000E+00       2.14841E+06      -1.05394E+01       6.80862E+01       1.90709E+01      -1.09167E+07       3.83485E+02       1.64750E+00       2.14827E+06       2.16398E+00       1.09140E+07      -2.72229E+01      -9.32202E+03       2.44720E+01      -9.37119E-02       1.07443E+06      -8.27861E+01       1.24929E+03       1.88107E+01       2.95479E+00       1.08232E+07      -3.66246E+01       4.79983E+08      -1.11604E+03      -7.07245E+04      -1.08250E+07       2.85841E+02       1.11447E+03       3.70354E+03       4.79951E+08       1.83378E+00       7.11944E+01      -7.52026E+03      -9.41613E+00      -1.25156E+05      -2.32805E+03       4.67693E+09
         62   0.62000E+00       2.09200E+06      -1.08648E+01       6.93594E+01       1.97379E+01      -1.07699E+07       3.95730E+02       1.67196E+00       2.09185E+06       2.21032E+00       1.07671E+07      -2.79678E+01      -9.51041E+03       2.46624E+01      -1.09897E-01       1.06828E+06      -8.36851E+01       1.24985E+03       1.93189E+01       2.85157E+00       1.06746E+07      -3.71595E+01       4.76930E+08      -1.14098E+03      -7.23438E+04      -1.06764E+07       2.94086E+02       1.10945E+03       3.81476E+03       4.76899E+08      -7.11746E+00       7.28487E+01      -7.65994E+03      -9.75855E+00      -1.27923E+05      -2.37600E+03       4.55503E+09
         63   0.63000E+00       2.03561E+06      -1.11725E+01       7.05140E+01       2.03757E+01      -1.06221E+07       4.07340E+02       1.69331E+00       2.03546E+06       2.25264E+00       1.06194E+07      -2.86650E+01      -9.68231E+03       2.48266E+01      -1.26972E-01       1.06207E+06      -8.44439E+01       1.24990E+03       1.97988E+01       2.75000E+00       1.05253E+07      -3.76606E+01       4.73841E+08      -1.16423E+03      -7.38282E+04      -1.05271E+07       3.01811E+02       1.10437E+03       3.91910E+03       4.73810E+08      -1.60197E+01       7.43581E+01      -7.78649E+03      -1.00735E+01      -1.30455E+05      -2.41862E+03       4.43311E+09
         64   0.64000E+00       1.97926E+06      -1.14620E+01       7.15480E+01       2.09829E+01      -1.04736E+07       4.18297E+02       1.71150E+00       1.97911E+06       2.29087E+00       1.04707E+07      -2.93133E+01      -9.83741E+03       2.49639E+01      -1.44922E-01       1.05578E+06      -8.50609E+01       1.24943E+03       2.02495E+01       2.65019E+00       1.03752E+07      -3.81270E+01       4.70715E+08      -1.18576E+03      -7.51751E+04      -1.03771E+07       3.09006E+02       1.09922E+03       4.01639E+03       4.70683E+08      -2.48643E+01       7.57197E+01      -7.89962E+03      -1.03603E+01      -1.32746E+05      -2.45582E+03       4.31123E+09
         65   0.65000E+00       1.92300E+06      -1.17327E+01       7.24590E+01       2.15581E+01      -1.03242E+07       4.28583E+02       1.72649E+00       1.92284E+06       2.32493E+00       1.03213E+07      -2.99117E+01      -9.97540E+03       2.50741E+01      -1.63718E-01       1.04944E+06      -8.55346E+01       1.24844E+03       2.06701E+01       2.55231E+00       1.02245E+07      -3.85578E+01       4.67552E+08      -1.20553E+03      -7.63818E+04      -1.02264E+07       3.15657E+02       1.09401E+03       4.10647E+03       4.67521E+08      -3.36324E+01       7.69311E+01      -7.99914E+03      -1.06185E+01      -1.34792E+05      -2.48753E+03       4.18946E+09
         66   0.66000E+00       1.86683E+06      -1.19842E+01       7.32454E+01       2.21004E+01      -1.01740E+07       4.38181E+02       1.73824E+00       1.86667E+06       2.35478E+00       1.01711E+07      -3.04591E+01      -1.00960E+04       2.51567E+01      -1.83338E-01       1.04302E+06      -8.58640E+01       1.24690E+03       2.10599E+01       2.45650E+00       1.00732E+07      -3.89523E+01       4.64354E+08      -1.22349E+03      -7.74464E+04      -1.00751E+07       3.21753E+02       1.08874E+03       4.18918E+03       4.64323E+08      -4.23146E+01       7.79898E+01      -8.08481E+03      -1.08475E+01      -1.36590E+05      -2.51371E+03       4.06785E+09
         67   0.67000E+00       1.81080E+06      -1.22161E+01       7.39054E+01       2.26084E+01      -1.00232E+07       4.47076E+02       1.74673E+00       1.81064E+06       2.38037E+00       1.00203E+07      -3.09548E+01      -1.01990E+04       2.52115E+01      -2.03748E-01       1.03654E+06      -8.60480E+01       1.24483E+03       2.14182E+01       2.36290E+00       9.92141E+06      -3.93096E+01       4.61121E+08      -1.23962E+03      -7.83666E+04      -9.92333E+06       3.27283E+02       1.08340E+03       4.26437E+03       4.61090E+08      -5.08913E+01       7.88940E+01      -8.15649E+03      -1.10469E+01      -1.38136E+05      -2.53429E+03       3.94646E+09
         68   0.68000E+00       1.75493E+06      -1.24279E+01       7.44378E+01       2.30811E+01      -9.87171E+06       4.55252E+02       1.75194E+00       1.75476E+06       2.40166E+00       9.86875E+06      -3.13978E+01      -1.02842E+04       2.52382E+01      -2.24922E-01       1.03000E+06      -8.60863E+01       1.24220E+03       2.17443E+01       2.27163E+00       9.76908E+06      -3.96291E+01       4.57852E+08      -1.25389E+03      -7.91410E+04      -9.77101E+06       3.32239E+02       1.07799E+03       4.33194E+03       4.57821E+08      -5.93525E+01       7.96418E+01      -8.21399E+03      -1.12163E+01      -1.39427E+05      -2.54924E+03       3.82535E+09
         69   0.69000E+00       1.69924E+06      -1.26194E+01       7.48413E+01       2.35173E+01      -9.71961E+06       4.62696E+02       1.75385E+00       1.69907E+06       2.41861E+00       9.71664E+06      -3.17877E+01      -1.03514E+04       2.52366E+01      -2.46819E-01       1.02340E+06      -8.59785E+01       1.23902E+03       2.20374E+01       2.18287E+00       9.61633E+06      -3.99100E+01       4.54549E+08      -1.26626E+03      -7.97680E+04      -9.61828E+06       3.36611E+02       1.07252E+03       4.39175E+03       4.54518E+08      -6.76787E+01       8.02321E+01      -8.25723E+03      -1.13554E+01      -1.40461E+05      -2.55855E+03       3.70458E+09
         70   0.70000E+00       1.64375E+06      -1.27902E+01       7.51152E+01       2.39160E+01      -9.56696E+06       4.69396E+02       1.75246E+00       1.64358E+06       2.43120E+00       9.56396E+06      -3.21236E+01      -1.04006E+04       2.52066E+01      -2.69407E-01       1.01673E+06      -8.57248E+01       1.23528E+03       2.22972E+01       2.09673E+00       9.46319E+06      -4.01518E+01       4.51212E+08      -1.27673E+03      -8.02466E+04      -9.46513E+06       3.40393E+02       1.06698E+03       4.44371E+03       4.51181E+08      -7.58591E+01       8.06635E+01      -8.28607E+03      -1.14638E+01      -1.41236E+05      -2.56219E+03       3.58418E+09
         71   0.71000E+00       1.58851E+06      -1.29400E+01       7.52587E+01       2.42762E+01      -9.41380E+06       4.75342E+02       1.74776E+00       1.58833E+06       2.43942E+00       9.41081E+06      -3.24052E+01      -1.04315E+04       2.51481E+01      -2.92642E-01       1.01001E+06      -8.53256E+01       1.23098E+03       2.25230E+01       2.01335E+00       9.30972E+06      -4.03541E+01       4.47842E+08      -1.28527E+03      -8.05759E+04      -9.31167E+06       3.43576E+02       1.06137E+03       4.48773E+03       4.47811E+08      -8.38742E+01       8.09354E+01      -8.30049E+03      -1.15414E+01      -1.41750E+05      -2.56016E+03       3.46423E+09
         72   0.72000E+00       1.53351E+06      -1.30685E+01       7.52715E+01       2.45969E+01      -9.26018E+06       4.80522E+02       1.73977E+00       1.53334E+06       2.44326E+00       9.25717E+06      -3.26321E+01      -1.04441E+04       2.50611E+01      -3.16486E-01       1.00322E+06      -8.47814E+01       1.22611E+03       2.27143E+01       1.93287E+00       9.15596E+06      -4.05161E+01       4.44438E+08      -1.29186E+03      -8.07553E+04      -9.15790E+06       3.46158E+02       1.05569E+03       4.52375E+03       4.44407E+08      -9.17124E+01       8.10472E+01      -8.30040E+03      -1.15880E+01      -1.42002E+05      -2.55248E+03       3.34477E+09
         73   0.73000E+00       1.47880E+06      -1.31755E+01       7.51535E+01       2.48773E+01      -9.10616E+06       4.84928E+02       1.72849E+00       1.47863E+06       2.44273E+00       9.10316E+06      -3.28039E+01      -1.04384E+04       2.49455E+01      -3.40889E-01       9.96370E+05      -8.40935E+01       1.22067E+03       2.28708E+01       1.85542E+00       9.00196E+06      -4.06378E+01       4.41002E+08      -1.29650E+03      -8.07846E+04      -9.00391E+06       3.48132E+02       1.04993E+03       4.55169E+03       4.40972E+08      -9.93543E+01       8.09990E+01      -8.28583E+03      -1.16034E+01      -1.41992E+05      -2.53917E+03       3.22585E+09
         74   0.74000E+00       1.42439E+06      -1.32608E+01       7.49046E+01       2.51166E+01      -8.95176E+06       4.88553E+02       1.71395E+00       1.42422E+06       2.43783E+00       8.94876E+06      -3.29204E+01      -1.04144E+04       2.48015E+01      -3.65809E-01       9.89462E+05      -8.32629E+01       1.21466E+03       2.29921E+01       1.78112E+00       8.84777E+06      -4.07185E+01       4.37534E+08      -1.29916E+03      -8.06637E+04      -8.84970E+06       3.49495E+02       1.04411E+03       4.57151E+03       4.37503E+08      -1.06789E+02       8.07904E+01      -8.25676E+03      -1.15876E+01      -1.41721E+05      -2.52026E+03       3.10751E+09
         75   0.75000E+00       1.37031E+06      -1.33243E+01       7.45253E+01       2.53138E+01      -8.79707E+06       4.91390E+02       1.69618E+00       1.37013E+06       2.42859E+00       8.79408E+06      -3.29816E+01      -1.03722E+04       2.46291E+01      -3.91194E-01       9.82498E+05      -8.22913E+01       1.20809E+03       2.30778E+01       1.71012E+00       8.69344E+06      -4.07583E+01       4.34034E+08      -1.29985E+03      -8.03929E+04      -8.69537E+06       3.50246E+02       1.03821E+03       4.58319E+03       4.34004E+08      -1.13995E+02       8.04224E+01      -8.21325E+03      -1.15406E+01      -1.41188E+05      -2.49579E+03       2.98981E+09
         76   0.76000E+00       1.31657E+06      -1.33658E+01       7.40161E+01       2.54685E+01      -8.64208E+06       4.93435E+02       1.67519E+00       1.31639E+06       2.41503E+00       8.63910E+06      -3.29873E+01      -1.03117E+04       2.44286E+01      -4.16993E-01       9.75473E+05      -8.11806E+01       1.20094E+03       2.31276E+01       1.64251E+00       8.53900E+06      -4.07566E+01       4.30502E+08      -1.29857E+03      -7.99728E+04      -8.54091E+06       3.50383E+02       1.03223E+03       4.58670E+03       4.30472E+08      -1.20962E+02       7.98952E+01      -8.15535E+03      -1.14624E+01      -1.40394E+05      -2.46582E+03       2.87278E+09
         77   0.77000E+00       1.26320E+06      -1.33852E+01       7.33779E+01       2.55798E+01      -8.48689E+06       4.94685E+02       1.65105E+00       1.26302E+06       2.39720E+00       8.48393E+06      -3.29378E+01      -1.02332E+04       2.42002E+01      -4.43152E-01       9.68393E+05      -7.99331E+01       1.19323E+03       2.31415E+01       1.57845E+00       8.38451E+06      -4.07137E+01       4.26940E+08      -1.29531E+03      -7.94042E+04      -8.38642E+06       3.49906E+02       1.02618E+03       4.58204E+03       4.26910E+08      -1.27669E+02       7.92104E+01      -8.08319E+03      -1.13532E+01      -1.39341E+05      -2.43042E+03       2.75648E+09
         78   0.78000E+00       1.21020E+06      -1.33826E+01       7.26118E+01       2.56473E+01      -8.33149E+06       4.95135E+02       1.62378E+00       1.21002E+06       2.37512E+00       8.32855E+06      -3.28330E+01      -1.01367E+04       2.39442E+01      -4.69618E-01       9.61254E+05      -7.85511E+01       1.18495E+03       2.31193E+01       1.51801E+00       8.23000E+06      -4.06292E+01       4.23347E+08      -1.29008E+03      -7.86883E+04      -8.23188E+06       3.48815E+02       1.02005E+03       4.56922E+03       4.23317E+08      -1.34107E+02       7.83688E+01      -7.99684E+03      -1.12132E+01      -1.38031E+05      -2.38966E+03       2.64094E+09
         79   0.79000E+00       1.15762E+06      -1.33578E+01       7.17190E+01       2.56702E+01      -8.17597E+06       4.94786E+02       1.59344E+00       1.15744E+06       2.34887E+00       8.17307E+06      -3.26735E+01      -1.00225E+04       2.36608E+01      -4.96330E-01       9.54061E+05      -7.70375E+01       1.17611E+03       2.30608E+01       1.46134E+00       8.07553E+06      -4.05032E+01       4.19725E+08      -1.28289E+03      -7.78264E+04      -8.07740E+06       3.47113E+02       1.01385E+03       4.54826E+03       4.19695E+08      -1.40254E+02       7.73724E+01      -7.89651E+03      -1.10425E+01      -1.36467E+05      -2.34364E+03       2.52621E+09
         80   0.80000E+00       1.10545E+06      -1.33110E+01       7.07011E+01       2.56484E+01      -8.02034E+06       4.93637E+02       1.56009E+00       1.10527E+06       2.31849E+00       8.01747E+06      -3.24594E+01      -9.89061E+03       2.33506E+01      -5.23234E-01       9.46809E+05      -7.53952E+01       1.16671E+03       2.29660E+01       1.40853E+00       7.92111E+06      -4.03358E+01       4.16072E+08      -1.27374E+03      -7.68202E+04      -7.92296E+06       3.44803E+02       1.00756E+03       4.51921E+03       4.16042E+08      -1.46099E+02       7.62228E+01      -7.78232E+03      -1.08414E+01      -1.34651E+05      -2.29245E+03       2.41231E+09
         81   0.81000E+00       1.05372E+06      -1.32422E+01       6.95600E+01       2.55812E+01      -7.86467E+06       4.91691E+02       1.52380E+00       1.05354E+06       2.28406E+00       7.86184E+06      -3.21914E+01      -9.74145E+03       2.30139E+01      -5.50264E-01       9.39504E+05      -7.36276E+01       1.15676E+03       2.28350E+01       1.35970E+00       7.76682E+06      -4.01272E+01       4.12390E+08      -1.26267E+03      -7.56716E+04      -7.76865E+06       3.41889E+02       1.00119E+03       4.48211E+03       4.12361E+08      -1.51623E+02       7.49227E+01      -7.65451E+03      -1.06103E+01      -1.32587E+05      -2.23621E+03       2.29930E+09
         82   0.82000E+00       1.00244E+06      -1.31514E+01       6.82977E+01       2.54686E+01      -7.70897E+06       4.88948E+02       1.48463E+00       1.00226E+06       2.24566E+00       7.70618E+06      -3.18698E+01      -9.57521E+03       2.26512E+01      -5.77364E-01       9.32141E+05      -7.17381E+01       1.14627E+03       2.26679E+01       1.31492E+00       7.61266E+06      -3.98774E+01       4.08680E+08      -1.24967E+03      -7.43828E+04      -7.61445E+06       3.38376E+02       9.94730E+02       4.43704E+03       4.08650E+08      -1.56816E+02       7.34741E+01      -7.51328E+03      -1.03497E+01      -1.30278E+05      -2.17503E+03       2.18719E+09
         83   0.83000E+00       9.51625E+05      -1.30388E+01       6.69163E+01       2.53101E+01      -7.55331E+06       4.85415E+02       1.44266E+00       9.51456E+05       2.20336E+00       7.55057E+06      -3.14955E+01      -9.39222E+03       2.22630E+01      -6.04466E-01       9.24726E+05      -6.97308E+01       1.13523E+03       2.24647E+01       1.27431E+00       7.45869E+06      -3.95869E+01       4.04941E+08      -1.23477E+03      -7.29564E+04      -7.46047E+06       3.34270E+02       9.88190E+02       4.38406E+03       4.04912E+08      -1.61658E+02       7.18802E+01      -7.35891E+03      -1.00598E+01      -1.27729E+05      -2.10905E+03       2.07604E+09
         84   0.84000E+00       9.01294E+05      -1.29046E+01       6.54185E+01       2.51057E+01      -7.39770E+06       4.81096E+02       1.39797E+00       9.01126E+05       2.15726E+00       7.39500E+06      -3.10691E+01      -9.19280E+03       2.18500E+01      -6.31509E-01       9.17254E+05      -6.76094E+01       1.12366E+03       2.22257E+01       1.23794E+00       7.30494E+06      -3.92558E+01       4.01174E+08      -1.21800E+03      -7.13950E+04      -7.30667E+06       3.29578E+02       9.81562E+02       4.32328E+03       4.01145E+08      -1.66138E+02       7.01437E+01      -7.19165E+03      -9.74134E+00      -1.24945E+05      -2.03840E+03       1.96585E+09
         85   0.85000E+00       8.51462E+05      -1.27490E+01       6.38068E+01       2.48552E+01      -7.24221E+06       4.75997E+02       1.35065E+00       8.51297E+05       2.10747E+00       7.23958E+06      -3.05915E+01      -8.97733E+03       2.14128E+01      -6.58426E-01       9.09730E+05      -6.53786E+01       1.11157E+03       2.19512E+01       1.20592E+00       7.15145E+06      -3.88847E+01       3.97380E+08      -1.19939E+03      -6.97017E+04      -7.15316E+06       3.24308E+02       9.74847E+02       4.25481E+03       3.97352E+08      -1.70239E+02       6.82683E+01      -7.01184E+03      -9.39474E+00      -1.21932E+05      -1.96323E+03       1.85668E+09
         86   0.86000E+00       8.02134E+05      -1.25722E+01       6.20842E+01       2.45586E+01      -7.08684E+06       4.70125E+02       1.30080E+00       8.01972E+05       2.05407E+00       7.08425E+06      -3.00635E+01      -8.74619E+03       2.09521E+01      -6.85153E-01       9.02150E+05      -6.30426E+01       1.09897E+03       2.16414E+01       1.17830E+00       6.99823E+06      -3.84739E+01       3.93558E+08      -1.17896E+03      -6.78796E+04      -6.99990E+06       3.18470E+02       9.68040E+02       4.17875E+03       3.93530E+08      -1.73951E+02       6.62574E+01      -6.81976E+03      -9.02069E+00      -1.18694E+05      -1.88371E+03       1.74854E+09
         87   0.87000E+00       7.53329E+05      -1.23745E+01       6.02539E+01       2.42161E+01      -6.93166E+06       4.63492E+02       1.24850E+00       7.53171E+05       1.99720E+00       6.92915E+06      -2.94862E+01      -8.49982E+03       2.04685E+01      -7.11620E-01       8.94520E+05      -6.06064E+01       1.08586E+03       2.12967E+01       1.15517E+00       6.84536E+06      -3.80242E+01       3.89711E+08      -1.15675E+03      -6.59322E+04      -6.84699E+06       3.12073E+02       9.61144E+02       4.09525E+03       3.89683E+08      -1.77255E+02       6.41150E+01      -6.61580E+03      -8.61980E+00      -1.15237E+05      -1.80000E+03       1.64146E+09
         88   0.88000E+00       7.05051E+05      -1.21562E+01       5.83191E+01       2.38278E+01      -6.77668E+06       4.56104E+02       1.19386E+00       7.04897E+05       1.93696E+00       6.77422E+06      -2.88607E+01      -8.23866E+03       1.99628E+01      -7.37764E-01       8.86834E+05      -5.80748E+01       1.07226E+03       2.09176E+01       1.13657E+00       6.69282E+06      -3.75359E+01       3.85836E+08      -1.13280E+03      -6.38633E+04      -6.69440E+06       3.05130E+02       9.54152E+02       4.00445E+03       3.85808E+08      -1.80144E+02       6.18450E+01      -6.40030E+03      -8.19284E+00      -1.11569E+05      -1.71227E+03       1.53546E+09
         89   0.89000E+00       6.57318E+05      -1.19176E+01       5.62834E+01       2.33939E+01      -6.62196E+06       4.47977E+02       1.13699E+00       6.57169E+05       1.87349E+00       6.61959E+06      -2.81882E+01      -7.96320E+03       1.94359E+01      -7.63514E-01       8.79097E+05      -5.54531E+01       1.05817E+03       2.05046E+01       1.12260E+00       6.54068E+06      -3.70098E+01       3.81936E+08      -1.10715E+03      -6.16767E+04      -6.54223E+06       2.97651E+02       9.47068E+02       3.90652E+03       3.81908E+08      -1.82599E+02       5.94520E+01      -6.17369E+03      -7.74052E+00      -1.07696E+05      -1.62072E+03       1.43058E+09
         90   0.90000E+00       6.10131E+05      -1.16592E+01       5.41505E+01       2.29147E+01      -6.46750E+06       4.39119E+02       1.07800E+00       6.09986E+05       1.80691E+00       6.46519E+06      -2.74698E+01      -7.67393E+03       1.88886E+01      -7.88805E-01       8.71306E+05      -5.27464E+01       1.04362E+03       2.00580E+01       1.11327E+00       6.38893E+06      -3.64466E+01       3.78009E+08      -1.07984E+03      -5.93766E+04      -6.39043E+06       2.89650E+02       9.39885E+02       3.80161E+03       3.77982E+08      -1.84614E+02       5.69405E+01      -5.93634E+03      -7.26372E+00      -1.03626E+05      -1.52552E+03       1.32682E+09
         91   0.91000E+00       5.63507E+05      -1.13813E+01       5.19243E+01       2.23907E+01      -6.31337E+06       4.29548E+02       1.01701E+00       5.63367E+05       1.73737E+00       6.31115E+06      -2.67070E+01      -7.37141E+03       1.83217E+01      -8.13567E-01       8.63465E+05      -4.99606E+01       1.02861E+03       1.95787E+01       1.10865E+00       6.23765E+06      -3.58471E+01       3.74058E+08      -1.05092E+03      -5.69674E+04      -6.23910E+06       2.81140E+02       9.32608E+02       3.68992E+03       3.74032E+08      -1.86173E+02       5.43153E+01      -5.68872E+03      -6.76322E+00      -9.93655E+04      -1.42689E+03       1.22422E+09
         92   0.92000E+00       5.17445E+05      -1.10844E+01       4.96089E+01       2.18222E+01      -6.15957E+06       4.19275E+02       9.54128E-01       5.17310E+05       1.66500E+00       6.15742E+06      -2.59011E+01      -7.05618E+03       1.77362E+01      -8.37734E-01       8.55568E+05      -4.71010E+01       1.01316E+03       1.90672E+01       1.10877E+00       6.08681E+06      -3.52121E+01       3.70082E+08      -1.02043E+03      -5.44537E+04      -6.08821E+06       2.72137E+02       9.25228E+02       3.57163E+03       3.70055E+08      -1.87268E+02       5.15815E+01      -5.43126E+03      -6.24001E+00      -9.49234E+04      -1.32503E+03       1.12277E+09
         93   0.93000E+00       4.71960E+05      -1.07689E+01       4.72085E+01       2.12100E+01      -6.00617E+06       4.08319E+02       8.89489E-01       4.71831E+05       1.58995E+00       6.00411E+06      -2.50536E+01      -6.72883E+03       1.71331E+01      -8.61237E-01       8.47624E+05      -4.41737E+01       9.97285E+02       1.85242E+01       1.11368E+00       5.93648E+06      -3.45426E+01       3.66082E+08      -9.88429E+02      -5.18402E+04      -5.93784E+06       2.62656E+02       9.17750E+02       3.44697E+03       3.66056E+08      -1.87885E+02       4.87444E+01      -5.16447E+03      -5.69496E+00      -9.03077E+04      -1.22014E+03       1.02252E+09
         94   0.94000E+00       4.27051E+05      -1.04354E+01       4.47275E+01       2.05546E+01      -5.85314E+06       3.96695E+02       8.23215E-01       4.26926E+05       1.51238E+00       5.85116E+06      -2.41660E+01      -6.38995E+03       1.65133E+01      -8.84012E-01       8.39624E+05      -4.11846E+01       9.80994E+02       1.79505E+01       1.12337E+00       5.78666E+06      -3.38393E+01       3.62057E+08      -9.54971E+02      -4.91319E+04      -5.78796E+06       2.52713E+02       9.10167E+02       3.31613E+03       3.62031E+08      -1.88018E+02       4.58093E+01      -4.88879E+03      -5.12912E+00      -8.55272E+04      -1.11246E+03       9.23456E+08
         95   0.95000E+00       3.82730E+05      -1.00844E+01       4.21705E+01       1.98567E+01      -5.70058E+06       3.84423E+02       7.55440E-01       3.82612E+05       1.43245E+00       5.69870E+06      -2.32401E+01      -6.04019E+03       1.58779E+01      -9.05990E-01       8.31576E+05      -3.81399E+01       9.64311E+02       1.73468E+01       1.13789E+00       5.63740E+06      -3.31035E+01       3.58010E+08      -9.20112E+02      -4.63339E+04      -5.63865E+06       2.42326E+02       9.02484E+02       3.17935E+03       3.57984E+08      -1.87654E+02       4.27821E+01      -4.60478E+03      -4.54348E+00      -8.05908E+04      -1.00219E+03       8.25609E+08
         96   0.96000E+00       3.38995E+05      -9.71650E+00       3.95421E+01       1.91172E+01      -5.54845E+06       3.71521E+02       6.86293E-01       3.38882E+05       1.35031E+00       5.54666E+06      -2.22773E+01      -5.68016E+03       1.52279E+01      -9.27107E-01       8.23474E+05      -3.50456E+01       9.47244E+02       1.67141E+01       1.15722E+00       5.48868E+06      -3.23361E+01       3.53938E+08      -8.83910E+02      -4.34515E+04      -5.48987E+06       2.31512E+02       8.94693E+02       3.03686E+03       3.53912E+08      -1.86789E+02       3.96683E+01      -4.31291E+03      -3.93915E+00      -7.55078E+04      -8.89578E+02       7.28976E+08
         97   0.97000E+00       2.95857E+05      -9.33224E+00       3.68473E+01       1.83370E+01      -5.39684E+06       3.58010E+02       6.15914E-01       2.95751E+05       1.26614E+00       5.39515E+06      -2.12795E+01      -5.31057E+03       1.45643E+01      -9.47298E-01       8.15324E+05      -3.19083E+01       9.29818E+02       1.60532E+01       1.18139E+00       5.34056E+06      -3.15383E+01       3.49844E+08      -8.46428E+02      -4.04902E+04      -5.34170E+06       2.20291E+02       8.86799E+02       2.88892E+03       3.49819E+08      -1.85411E+02       3.64741E+01      -4.01377E+03      -3.31718E+00      -7.02878E+04      -7.74850E+02       6.33583E+08
         98   0.98000E+00       2.53311E+05      -8.93224E+00       3.40909E+01       1.75171E+01      -5.24572E+06       3.43909E+02       5.44439E-01       2.53212E+05       1.18010E+00       5.24412E+06      -2.02484E+01      -4.93207E+03       1.38883E+01      -9.66502E-01       8.07120E+05      -2.87342E+01       9.12044E+02       1.53650E+01       1.21036E+00       5.19303E+06      -3.07112E+01       3.45727E+08      -8.07727E+02      -3.74556E+04      -5.19411E+06       2.08681E+02       8.78794E+02       2.73578E+03       3.45702E+08      -1.83517E+02       3.32056E+01      -3.70787E+03      -2.67878E+00      -6.49406E+04      -6.58244E+02       5.39422E+08
         99   0.99000E+00       2.11368E+05      -8.51718E+00       3.12781E+01       1.66585E+01      -5.09516E+06       3.29243E+02       4.72011E-01       2.11276E+05       1.09237E+00       5.09368E+06      -1.91860E+01      -4.54537E+03       1.32011E+01      -9.84653E-01       7.98869E+05      -2.55300E+01       8.93947E+02       1.46506E+01       1.24414E+00       5.04615E+06      -2.98561E+01       3.41588E+08      -7.67876E+02      -3.43533E+04      -5.04717E+06       1.96703E+02       8.70685E+02       2.57771E+03       3.41564E+08      -1.81098E+02       2.98691E+01      -3.39582E+03      -2.02504E+00      -5.94762E+04      -5.40004E+02       4.46515E+08
        100   0.10000E+01       1.70022E+05      -8.08772E+00       2.84141E+01       1.57624E+01      -4.94515E+06       3.14034E+02       3.98769E-01       1.69936E+05       1.00312E+00       4.94376E+06      -1.80940E+01      -4.15118E+03       1.25036E+01      -1.00170E+00       7.90564E+05      -2.23021E+01       8.75538E+02       1.39109E+01       1.28270E+00       4.89989E+06      -2.89741E+01       3.37427E+08      -7.26940E+02      -3.11894E+04      -4.90085E+06       1.84378E+02       8.62462E+02       2.41498E+03       3.37403E+08      -1.78151E+02       2.64709E+01      -3.07814E+03      -1.35725E+00      -5.39050E+04      -4.20372E+02       3.54852E+08
        101   0.10100E+01       1.29281E+05      -7.64456E+00       2.55040E+01       1.48300E+01      -4.79576E+06       2.98305E+02       3.24863E-01       1.29203E+05       9.12533E-01       4.79448E+06      -1.69744E+01      -3.75024E+03       1.17972E+01      -1.01757E+00       7.82212E+05      -1.90572E+01       8.56844E+02       1.31472E+01       1.32600E+00       4.75432E+06      -2.80667E+01       3.33245E+08      -6.84990E+02      -2.79697E+04      -4.75522E+06       1.71726E+02       8.54131E+02       2.24787E+03       3.33222E+08      -1.74669E+02       2.30178E+01      -2.75547E+03      -6.76557E-01      -4.82374E+04      -2.99599E+02       2.64451E+08
        102   0.10200E+01       8.91381E+04      -7.18842E+00       2.25534E+01       1.38625E+01      -4.64695E+06       2.82082E+02       2.50433E-01       8.90661E+04       8.20785E-01       4.64577E+06      -1.58292E+01      -3.34328E+03       1.10829E+01      -1.03221E+00       7.73806E+05      -1.58017E+01       8.37876E+02       1.23604E+01       1.37401E+00       4.60940E+06      -2.71351E+01       3.29041E+08      -6.42096E+02      -2.47004E+04      -4.61023E+06       1.58770E+02       8.45686E+02       2.07667E+03       3.29018E+08      -1.70651E+02       1.95161E+01      -2.42836E+03       1.57135E-02      -4.24840E+04      -1.77932E+02       1.75302E+08
        103   0.10300E+01       4.96001E+04      -6.72006E+00       1.95675E+01       1.28615E+01      -4.49880E+06       2.65390E+02       1.75630E-01       4.95365E+04       7.28066E-01       4.49774E+06      -1.46605E+01      -2.93106E+03       1.03620E+01      -1.04558E+00       7.65354E+05      -1.25426E+01       8.18663E+02       1.15519E+01       1.42668E+00       4.46519E+06      -2.61808E+01       3.24817E+08      -5.98333E+02      -2.13876E+04      -4.46597E+06       1.45532E+02       8.37132E+02       1.90169E+03       3.24795E+08      -1.66092E+02       1.59729E+01      -2.09746E+03       7.18340E-01      -3.66556E+04      -5.56252E+01       8.74186E+07
        104   0.10400E+01       1.06599E+04      -6.24022E+00       1.65520E+01       1.18283E+01      -4.35129E+06       2.48254E+02       1.00598E-01       1.06026E+04       6.34553E-01       4.35032E+06      -1.34702E+01      -2.51432E+03       9.63567E+00      -1.05761E+00       7.56849E+05      -9.28629E+00       7.99217E+02       1.07226E+01       1.48394E+00       4.32167E+06      -2.52051E+01       3.20572E+08      -5.53773E+02      -1.80376E+04      -4.32238E+06       1.32035E+02       8.28461E+02       1.72321E+03       3.20551E+08      -1.60993E+02       1.23947E+01      -1.76335E+03       1.42997E+00      -3.07633E+04       6.70713E+01       7.87228E+05
        105   0.10500E+01      -2.76782E+04      -5.74971E+00       1.35124E+01       1.07646E+01      -4.20448E+06       2.30703E+02       2.54871E-02      -2.77270E+04       5.40437E-01       4.20364E+06      -1.22606E+01      -2.09387E+03       8.90515E+00      -1.06826E+00       7.48298E+05      -6.03959E+00       7.79566E+02       9.87402E+00       1.54574E+00       4.17889E+06      -2.42096E+01       3.16308E+08      -5.08493E+02      -1.46567E+04      -4.17954E+06       1.18302E+02       8.19680E+02       1.54156E+03       3.16287E+08      -1.55352E+02       8.78863E+00      -1.42667E+03       2.14933E+00      -2.48180E+04       1.89902E+02      -8.45806E+07
        106   0.10600E+01      -6.54225E+04      -5.24930E+00       1.04543E+01       9.67174E+00      -4.05834E+06       2.12764E+02      -4.95570E-02      -6.54648E+04       4.45899E-01       4.05759E+06      -1.10335E+01      -1.67043E+03       8.17159E+00      -1.07747E+00       7.39694E+05      -2.80895E+00       7.59724E+02       9.00719E+00       1.61200E+00       4.03683E+06      -2.31956E+01       3.12024E+08      -4.62569E+02      -1.12513E+04      -4.03741E+06       1.04358E+02       8.10781E+02       1.35705E+03       3.12003E+08      -1.49170E+02       5.16148E+00      -1.08802E+03       2.87503E+00      -1.88311E+04       3.12615E+02      -1.68701E+08
[...]
       5972   0.59720E+02       2.30212E+04      -1.96617E+00       2.26425E+01       1.57318E+01      -3.72081E+04       5.03961E+01       4.80195E-01       2.29480E+04       5.17345E-01       3.63861E+04      -4.12826E+00      -2.95828E+03       4.91685E+00      -1.33443E-01      -8.41826E+03      -1.44093E+01       7.96112E+01       1.63529E+01      -2.19494E+00       2.64752E+04      -9.61600E+00      -7.22862E+04      -2.85089E+02      -2.60587E+04      -2.69626E+04       7.39029E+01      -1.37369E+01       1.00440E+03      -7.36625E+04      -3.02426E+02       2.98447E+01      -2.56962E+03      -5.67694E+00      -4.47532E+04      -5.70467E+02       1.01544E+07
       5973   0.59730E+02       2.33984E+04      -2.17685E+00       2.52995E+01       1.77230E+01      -3.83423E+04       5.45101E+01       5.28999E-01       2.33182E+04       5.85262E-01       3.74389E+04      -4.54909E+00      -3.30702E+03       5.52012E+00      -1.19429E-01      -8.63117E+03      -1.61636E+01       8.82699E+01       1.78876E+01      -2.34405E+00       2.63037E+04      -9.98151E+00      -1.05898E+05      -3.08917E+02      -2.90768E+04      -2.68803E+04       8.08110E+01      -1.56493E+01       1.10001E+03      -1.06446E+05      -3.27118E+02       3.30593E+01      -2.87244E+03      -6.30425E+00      -4.99770E+04      -6.37663E+02       1.04219E+07
       5974   0.59740E+02       2.37735E+04      -2.38353E+00       2.79086E+01       1.96789E+01      -3.94629E+04       5.85403E+01       5.76896E-01       2.36843E+04       6.51991E-01       3.84532E+04      -4.96114E+00      -3.64941E+03       6.11286E+00      -1.05508E-01      -8.84190E+03      -1.78908E+01       9.67644E+01       1.93930E+01      -2.49026E+00       2.61850E+04      -1.03390E+01      -1.36643E+05      -3.32271E+02      -3.20404E+04      -2.67851E+04       8.75847E+01      -1.75308E+01       1.19370E+03      -1.38194E+05      -3.51313E+02       3.62155E+01      -3.16982E+03      -6.92002E+00      -5.51064E+04      -7.03660E+02       1.07266E+07
       5975   0.59750E+02       2.41271E+04      -2.58574E+00       3.04648E+01       2.15972E+01      -4.05405E+04       6.24781E+01       6.23832E-01       2.40314E+04       7.17425E-01       3.94524E+04      -5.36404E+00      -3.98492E+03       6.69375E+00      -9.16794E-02      -9.04706E+03      -1.95871E+01       1.05079E+02       2.08656E+01      -2.63345E+00       2.60038E+04      -1.06878E+01      -1.68978E+05      -3.55109E+02      -3.49435E+04      -2.66900E+04       9.42032E+01      -1.93841E+01       1.28531E+03      -1.69696E+05      -3.74950E+02       3.93070E+01      -3.46116E+03      -7.52258E+00      -6.01316E+04      -7.68350E+02       1.09809E+07
       5976   0.59760E+02       2.44782E+04      -2.78320E+00       3.29633E+01       2.34727E+01      -4.16017E+04       6.63191E+01       6.69684E-01       2.43738E+04       7.81412E-01       4.04098E+04      -5.75681E+00      -4.31281E+03       7.26185E+00      -7.80284E-02      -9.24928E+03      -2.12490E+01       1.13199E+02       2.23037E+01      -2.77321E+00       2.58785E+04      -1.10275E+01      -1.98290E+05      -3.77395E+02      -3.77811E+04      -2.65844E+04       1.00665E+02      -2.11983E+01       1.37469E+03      -1.99994E+05      -3.98010E+02       4.23285E+01      -3.74594E+03      -8.11138E+00      -6.50433E+04      -8.31591E+02       1.12711E+07
       5977   0.59770E+02       2.48081E+04      -2.97549E+00       3.53994E+01       2.53031E+01      -4.26168E+04       7.00547E+01       7.14401E-01       2.46974E+04       8.43850E-01       4.13523E+04      -6.13911E+00      -4.63255E+03       7.81586E+00      -6.45543E-02      -9.44500E+03      -2.28730E+01       1.21110E+02       2.37040E+01      -2.90944E+00       2.56906E+04      -1.13576E+01      -2.29144E+05      -3.99086E+02      -4.05472E+04      -2.64819E+04       1.06948E+02      -2.29760E+01       1.46168E+03      -2.30028E+05      -4.20435E+02       4.52737E+01      -4.02358E+03      -8.68479E+00      -6.98319E+04      -8.93278E+02       1.15106E+07
       5978   0.59780E+02       2.51346E+04      -3.16234E+00       3.77685E+01       2.70835E+01      -4.36135E+04       7.36810E+01       7.57864E-01       2.50156E+04       9.04594E-01       4.22496E+04      -6.50999E+00      -4.94345E+03       8.35492E+00      -5.13397E-02      -9.63703E+03      -2.44555E+01       1.28797E+02       2.50646E+01      -3.04176E+00       2.55604E+04      -1.16775E+01      -2.56857E+05      -4.20150E+02      -4.32373E+04      -2.63700E+04       1.13054E+02      -2.47066E+01       1.54614E+03      -2.58736E+05      -4.42208E+02       4.81377E+01      -4.29360E+03      -9.24235E+00      -7.44887E+04      -9.53276E+02       1.17849E+07
       5979   0.59790E+02       2.54392E+04      -3.34333E+00       4.00660E+01       2.88116E+01      -4.45604E+04       7.71898E+01       8.00026E-01       2.53144E+04       9.63547E-01       4.31291E+04      -6.86915E+00      -5.24502E+03       8.87778E+00      -3.83826E-02      -9.82187E+03      -2.59933E+01       1.36246E+02       2.63825E+01      -3.17005E+00       2.53726E+04      -1.19867E+01      -2.85966E+05      -4.40546E+02      -4.58458E+04      -2.62630E+04       1.18960E+02      -2.63930E+01       1.62792E+03      -2.86995E+05      -4.63273E+02       5.09146E+01      -4.55545E+03      -9.78245E+00      -7.90046E+04      -1.01149E+03       1.20078E+07
       5980   0.59800E+02       2.57401E+04      -3.51823E+00       4.22877E+01       3.04829E+01      -4.54874E+04       8.05775E+01       8.40774E-01       2.56075E+04       1.02057E+00       4.39624E+04      -7.21566E+00      -5.53657E+03       9.38364E+00      -2.57639E-02      -1.00022E+04      -2.74831E+01       1.43444E+02       2.76560E+01      -3.29396E+00       2.52430E+04      -1.22849E+01      -3.11864E+05      -4.60243E+02      -4.83681E+04      -2.61482E+04       1.24668E+02      -2.80245E+01       1.70688E+03      -3.13852E+05      -4.83615E+02       5.35996E+01      -4.80868E+03      -1.03047E+01      -8.33714E+04      -1.06778E+03       1.22648E+07
       5981   0.59810E+02       2.60188E+04      -3.68665E+00       4.44293E+01       3.20953E+01      -4.63614E+04       8.38364E+01       8.80066E-01       2.58809E+04       1.07558E+00       4.47742E+04      -7.54929E+00      -5.81767E+03       9.87131E+00      -1.34790E-02      -1.01747E+04      -2.89216E+01       1.50379E+02       2.88821E+01      -3.41339E+00       2.50571E+04      -1.25714E+01      -3.39025E+05      -4.79204E+02      -5.07992E+04      -2.60403E+04       1.30157E+02      -2.96045E+01       1.78289E+03      -3.40187E+05      -5.03179E+02       5.61873E+01      -5.05275E+03      -1.08076E+01      -8.75806E+04      -1.12207E+03       1.24699E+07
       5982   0.59820E+02       2.62932E+04      -3.84836E+00       4.64869E+01       3.36444E+01      -4.72132E+04       8.69631E+01       9.17793E-01       2.61480E+04       1.12844E+00       4.55380E+04      -7.86914E+00      -6.08768E+03       1.03401E+01      -1.60768E-03      -1.03421E+04      -3.03059E+01       1.57037E+02       3.00595E+01      -3.52801E+00       2.49310E+04      -1.28461E+01      -3.62851E+05      -4.97399E+02      -5.31349E+04      -2.59263E+04       1.35428E+02      -3.11226E+01       1.85582E+03      -3.65014E+05      -5.21954E+02       5.86733E+01      -5.28726E+03      -1.12907E+01      -9.16244E+04      -1.17423E+03       1.27084E+07
       5983   0.59830E+02       2.65453E+04      -4.00301E+00       4.84564E+01       3.51285E+01      -4.80104E+04       8.99505E+01       9.53919E-01       2.63952E+04       1.17907E+00       4.62794E+04      -8.17501E+00      -6.34618E+03       1.07888E+01       9.85796E-03      -1.05008E+04      -3.16331E+01       1.63406E+02       3.11853E+01      -3.63772E+00       2.47513E+04      -1.31083E+01      -3.87931E+05      -5.14795E+02      -5.53703E+04      -2.58202E+04       1.40463E+02      -3.25821E+01       1.92554E+03      -3.89222E+05      -5.39889E+02       6.10525E+01      -5.51172E+03      -1.17527E+01      -9.54950E+04      -1.22417E+03       1.28940E+07
       5984   0.59840E+02       2.67926E+04      -4.15038E+00       5.03341E+01       3.65433E+01      -4.87820E+04       9.27956E+01       9.88343E-01       2.66358E+04       1.22736E+00       4.69709E+04      -8.46607E+00      -6.59260E+03       1.12168E+01       2.08409E-02      -1.06537E+04      -3.29002E+01       1.69476E+02       3.22582E+01      -3.74220E+00       2.46327E+04      -1.33577E+01      -4.09578E+05      -5.31364E+02      -5.75016E+04      -2.57099E+04       1.45262E+02      -3.39732E+01       1.99194E+03      -4.11806E+05      -5.56974E+02       6.33208E+01      -5.72573E+03      -1.21932E+01      -9.91853E+04      -1.27179E+03       1.31117E+07
       5985   0.59850E+02       2.70171E+04      -4.29014E+00       5.21166E+01       3.78874E+01      -4.94989E+04       9.54917E+01       1.02103E+00       2.68559E+04       1.27322E+00       4.76371E+04      -8.74216E+00      -6.82656E+03       1.16231E+01       3.13515E-02      -1.07975E+04      -3.41046E+01       1.75234E+02       3.32756E+01      -3.84139E+00       2.44618E+04      -1.35939E+01      -4.32331E+05      -5.47074E+02      -5.95245E+04      -2.56085E+04       1.49807E+02      -3.52994E+01       2.05490E+03      -4.33741E+05      -5.73159E+02       6.54735E+01      -5.92887E+03      -1.26109E+01      -1.02688E+05      -1.31701E+03       1.32776E+07
       5986   0.59860E+02       2.72369E+04      -4.42213E+00       5.38004E+01       3.91569E+01      -5.01876E+04       9.80364E+01       1.05189E+00       2.70694E+04       1.31654E+00       4.82516E+04      -9.00249E+00      -7.04752E+03       1.20071E+01       4.13155E-02      -1.09348E+04      -3.52437E+01       1.80672E+02       3.42365E+01      -3.93500E+00       2.43535E+04      -1.38167E+01      -4.51543E+05      -5.61904E+02      -6.14355E+04      -2.55044E+04       1.54102E+02      -3.65510E+01       2.11432E+03      -4.53990E+05      -5.88441E+02       6.75071E+01      -6.12078E+03      -1.30056E+01      -1.05997E+05      -1.35973E+03       1.34752E+07
       5987   0.59870E+02       2.74328E+04      -4.54602E+00       5.53823E+01       4.03506E+01      -5.08190E+04       1.00423E+02       1.08090E+00       2.72618E+04       1.35727E+00       4.88406E+04      -9.24696E+00      -7.25516E+03       1.23678E+01       5.07466E-02      -1.10624E+04      -3.63152E+01       1.85778E+02       3.51383E+01      -4.02296E+00       2.41946E+04      -1.40255E+01      -4.71915E+05      -5.75822E+02      -6.32307E+04      -2.54108E+04       1.58128E+02      -3.77322E+01       2.17008E+03      -4.73427E+05      -6.02771E+02       6.94173E+01      -6.30106E+03      -1.33760E+01      -1.09106E+05      -1.39987E+03       1.36185E+07
       5988   0.59880E+02       2.76239E+04      -4.66169E+00       5.68594E+01       4.14649E+01      -5.14212E+04       1.02651E+02       1.10797E+00       2.74473E+04       1.39530E+00       4.93752E+04      -9.47483E+00      -7.44899E+03       1.27048E+01       5.95734E-02      -1.11831E+04      -3.73167E+01       1.90544E+02       3.59803E+01      -4.10501E+00       2.41002E+04      -1.42202E+01      -4.88680E+05      -5.88809E+02      -6.49070E+04      -2.53146E+04       1.61889E+02      -3.88333E+01       2.22212E+03      -4.91170E+05      -6.16147E+02       7.12010E+01      -6.46942E+03      -1.37221E+01      -1.12008E+05      -1.43735E+03       1.37940E+07
       5989   0.59890E+02       2.77914E+04      -4.76883E+00       5.82288E+01       4.24988E+01      -5.19638E+04       1.04713E+02       1.13308E+00       2.76118E+04       1.43058E+00       4.98838E+04      -9.68605E+00      -7.62874E+03       1.30171E+01       6.78144E-02      -1.12936E+04      -3.82461E+01       1.94961E+02       3.67602E+01      -4.18110E+00       2.39552E+04      -1.44003E+01      -5.06382E+05      -6.00839E+02      -6.64608E+04      -2.52318E+04       1.65368E+02      -3.98589E+01       2.27031E+03      -5.07986E+05      -6.28526E+02       7.28543E+01      -6.62548E+03      -1.40425E+01      -1.14699E+05      -1.47212E+03       1.39144E+07
       5990   0.59900E+02       2.79538E+04      -4.86735E+00       5.94881E+01       4.34491E+01      -5.24766E+04       1.06608E+02       1.15615E+00       2.77688E+04       1.46301E+00       5.03364E+04      -9.87994E+00      -7.79398E+03       1.33045E+01       7.54006E-02      -1.13966E+04      -3.91015E+01       1.99021E+02       3.74773E+01      -4.25099E+00       2.38763E+04      -1.45658E+01      -5.20487E+05      -6.11896E+02      -6.78898E+04      -2.51467E+04       1.68569E+02      -4.07998E+01       2.31461E+03      -5.23043E+05      -6.39909E+02       7.43747E+01      -6.76900E+03      -1.43373E+01      -1.17174E+05      -1.50408E+03       1.40666E+07
       5991   0.59910E+02       2.80919E+04      -4.95697E+00       6.06346E+01       4.43152E+01      -5.29273E+04       1.08332E+02       1.17717E+00       2.79049E+04       1.49257E+00       5.07614E+04      -1.00565E+01      -7.94448E+03       1.35661E+01       8.23542E-02      -1.14890E+04      -3.98810E+01       2.02716E+02       3.81297E+01      -4.31467E+00       2.37483E+04      -1.47162E+01      -5.35498E+05      -6.21955E+02      -6.91906E+04      -2.50760E+04       1.71477E+02      -4.16607E+01       2.35490E+03      -5.37179E+05      -6.50254E+02       7.57587E+01      -6.89966E+03      -1.46054E+01      -1.19426E+05      -1.53319E+03       1.41639E+07
       5992   0.59920E+02       2.82245E+04      -5.03764E+00       6.16665E+01       4.50941E+01      -5.33470E+04       1.09883E+02       1.19608E+00       2.80334E+04       1.51916E+00       5.11297E+04      -1.02151E+01      -8.07987E+03       1.38016E+01       8.86104E-02      -1.15738E+04      -4.05829E+01       2.06041E+02       3.87169E+01      -4.37191E+00       2.36872E+04      -1.48515E+01      -5.46832E+05      -6.31004E+02      -7.03615E+04      -2.50040E+04       1.74098E+02      -4.24330E+01       2.39115E+03      -5.49498E+05      -6.59568E+02       7.70044E+01      -7.01726E+03      -1.48469E+01      -1.21454E+05      -1.55939E+03       1.42921E+07
       5993   0.59930E+02       2.83332E+04      -5.10912E+00       6.25815E+01       4.57856E+01      -5.37041E+04       1.11256E+02       1.21285E+00       2.81404E+04       1.54275E+00       5.14689E+04      -1.03559E+01      -8.19999E+03       1.40104E+01       9.41955E-02      -1.16473E+04      -4.12058E+01       2.08989E+02       3.92371E+01      -4.42271E+00       2.35778E+04      -1.49712E+01      -5.59047E+05      -6.39024E+02      -7.13996E+04      -2.49469E+04       1.76416E+02      -4.31217E+01       2.42327E+03      -5.60786E+05      -6.67813E+02       7.81089E+01      -7.12153E+03      -1.50608E+01      -1.23252E+05      -1.58263E+03       1.43652E+07
       5994   0.59940E+02       2.84363E+04      -5.17137E+00       6.33781E+01       4.63871E+01      -5.40290E+04       1.12452E+02       1.22744E+00       2.82400E+04       1.56328E+00       5.17516E+04      -1.04782E+01      -8.30451E+03       1.41923E+01       9.90486E-02      -1.17129E+04      -4.17484E+01       2.11555E+02       3.96902E+01      -4.46687E+00       2.35363E+04      -1.50755E+01      -5.67520E+05      -6.46004E+02      -7.23035E+04      -2.48893E+04       1.78437E+02      -4.37185E+01       2.45123E+03      -5.70229E+05      -6.74996E+02       7.90705E+01      -7.21233E+03      -1.52472E+01      -1.24817E+05      -1.60285E+03       1.44686E+07
       5995   0.59950E+02       2.85149E+04      -5.22418E+00       6.40547E+01       4.68985E+01      -5.42906E+04       1.13466E+02       1.23985E+00       2.83176E+04       1.58073E+00       5.20027E+04      -1.05822E+01      -8.39333E+03       1.43468E+01       1.03200E-01      -1.17672E+04      -4.22094E+01       2.13734E+02       4.00746E+01      -4.50443E+00       2.34471E+04      -1.51639E+01      -5.76854E+05      -6.51929E+02      -7.30710E+04      -2.48474E+04       1.80149E+02      -4.42289E+01       2.47497E+03      -5.78637E+05      -6.81084E+02       7.98870E+01      -7.28943E+03      -1.54052E+01      -1.26146E+05      -1.62004E+03       1.45173E+07
       5996   0.59960E+02       2.85879E+04      -5.26757E+00       6.46100E+01       4.73179E+01      -5.45178E+04       1.14300E+02       1.25002E+00       2.83877E+04       1.59505E+00       5.21953E+04      -1.06673E+01      -8.46619E+03       1.44736E+01       1.06592E-01      -1.18132E+04      -4.25880E+01       2.15522E+02       4.03904E+01      -4.53520E+00       2.34264E+04      -1.52364E+01      -5.82397E+05      -6.56793E+02      -7.37012E+04      -2.48061E+04       1.81558E+02      -4.46450E+01       2.49445E+03      -5.85149E+05      -6.86090E+02       8.05574E+01      -7.35273E+03      -1.55351E+01      -1.27238E+05      -1.63414E+03       1.45962E+07
       5997   0.59970E+02       2.86362E+04      -5.30135E+00       6.50430E+01       4.76454E+01      -5.46833E+04       1.14948E+02       1.25796E+00       2.84360E+04       1.60622E+00       5.23601E+04      -1.07339E+01      -8.52304E+03       1.45724E+01       1.09261E-01      -1.18476E+04      -4.28833E+01       2.16916E+02       4.06363E+01      -4.55924E+00       2.33585E+04      -1.52929E+01      -5.88803E+05      -6.60583E+02      -7.41924E+04      -2.47799E+04       1.82652E+02      -4.49725E+01       2.50962E+03      -5.90616E+05      -6.89981E+02       8.10799E+01      -7.40207E+03      -1.56362E+01      -1.28088E+05      -1.64514E+03       1.46192E+07
       5998   0.59980E+02       2.86788E+04      -5.32557E+00       6.53529E+01       4.78793E+01      -5.48134E+04       1.15413E+02       1.26363E+00       2.84766E+04       1.61421E+00       5.24643E+04      -1.07813E+01      -8.56369E+03       1.46432E+01       1.11155E-01      -1.18736E+04      -4.30946E+01       2.17914E+02       4.08125E+01      -4.57639E+00       2.33588E+04      -1.53334E+01      -5.91419E+05      -6.63296E+02      -7.45441E+04      -2.47549E+04       1.83439E+02      -4.52041E+01       2.52049E+03      -5.94149E+05      -6.92775E+02       8.14541E+01      -7.43739E+03      -1.57088E+01      -1.28697E+05      -1.65301E+03       1.46727E+07
       5999   0.59990E+02       2.86970E+04      -5.34007E+00       6.55391E+01       4.80203E+01      -5.48801E+04       1.15691E+02       1.26705E+00       2.84953E+04       1.61902E+00       5.25392E+04      -1.08100E+01      -8.58814E+03       1.46857E+01       1.12310E-01      -1.18880E+04      -4.32216E+01       2.18513E+02       4.09181E+01      -4.58675E+00       2.33139E+04      -1.53577E+01      -5.94797E+05      -6.64924E+02      -7.47551E+04      -2.47458E+04       1.83908E+02      -4.53460E+01       2.52701E+03      -5.96625E+05      -6.94444E+02       8.16786E+01      -7.45860E+03      -1.57521E+01      -1.29063E+05      -1.65774E+03       1.46703E+07
       6000   0.60000E+02       2.87092E+04      -5.34494E+00       6.56012E+01       4.80669E+01      -5.49123E+04       1.15785E+02       1.26818E+00       2.85061E+04       1.62062E+00       5.25551E+04      -1.08194E+01      -8.59627E+03       1.46999E+01       1.12681E-01      -1.18938E+04      -4.32640E+01       2.18713E+02       4.09536E+01      -4.59016E+00       2.33370E+04      -1.53658E+01      -5.94368E+05      -6.65469E+02      -7.48257E+04      -2.47385E+04       1.84068E+02      -4.53911E+01       2.52919E+03      -5.97142E+05      -6.95009E+02       8.17537E+01      -7.46569E+03      -1.57668E+01      -1.29185E+05      -1.65932E+03       1.46982E+07

This summary file was closed on 11-Apr-2024 at 09:47:53.

